new line.LV1FMAI1 bus1=BUSLVMAI579.1.2 bus2=BUSLVMAI214.1.2 Linecode=TRPX2/0AAAC length=2.2838 units=m !1ph_basekV=0.12 Group=1
new line.LV1FMAI2 bus1=BUSLVMAI580.1.2 bus2=BUSLVMAI579.1.2 Linecode=TRPX2/0AAAC length=47.7563 units=m !1ph_basekV=0.12 Group=1
new line.LV1FMAI3 bus1=BUSLVMAI584.1.2 bus2=BUSLVMAI579.1.2 Linecode=TRPX2/0AAAC length=47.5509 units=m !1ph_basekV=0.12 Group=1
new line.LV1FMAI4 bus1=BUSLVMAI611.1.2 bus2=BUSLVMAI579.1.2 Linecode=TRPX2/0AAAC length=9.6543 units=m !1ph_basekV=0.12 Group=1
new line.LV1FMAI5 bus1=BUSLVMAI616.1.2 bus2=BUSLVMAI579.1.2 Linecode=TRPX2/0AAAC length=19.7348 units=m !1ph_basekV=0.12 Group=1
new line.LV1FMAI6 bus1=BUSLVMAI581.1.2 bus2=BUSLVMAI580.1.2 Linecode=TRPX2/0AAAC length=44.4976 units=m !1ph_basekV=0.12 Group=1
new line.LV1FMAI7 bus1=BUSLVMAI610.1.2 bus2=BUSLVMAI580.1.2 Linecode=TRPX2/0AAAC length=19.6864 units=m !1ph_basekV=0.12 Group=1
new line.LV1FMAI8 bus1=BUSLVMAI619.1.2 bus2=BUSLVMAI580.1.2 Geometry=1FLV2/0AAAC2/0AAAC length=9.4765 units=m !1ph_basekV=0.12 Group=1
new line.LV1FMAI9 bus1=BUSLVMAI624.1.2 bus2=BUSLVMAI580.1.2 Linecode=TRPX2/0AAAC length=1.5888 units=m !1ph_basekV=0.12 Group=1
new line.LV1FMAI10 bus1=BUSLVMAI642.1.2 bus2=BUSLVMAI580.1.2 Linecode=TRPX2/0AAAC length=19.6865 units=m !1ph_basekV=0.12 Group=1
new line.LV1FMAI11 bus1=BUSLVMAI582.1.2 bus2=BUSLVMAI581.1.2 Linecode=TRPX2/0AAAC length=38.5152 units=m !1ph_basekV=0.12 Group=1
new line.LV1FMAI12 bus1=BUSLVMAI617.1.2 bus2=BUSLVMAI581.1.2 Linecode=TRPX2/0AAAC length=8.0542 units=m !1ph_basekV=0.12 Group=1
new line.LV1FMAI13 bus1=BUSLVMAI618.1.2 bus2=BUSLVMAI581.1.2 Linecode=TRPX2/0AAAC length=2.3204 units=m !1ph_basekV=0.12 Group=1
new line.LV1FMAI14 bus1=BUSLVMAI620.1.2 bus2=BUSLVMAI581.1.2 Linecode=TRPX2/0AAAC length=16.1925 units=m !1ph_basekV=0.12 Group=1
new line.LV1FMAI15 bus1=BUSLVMAI621.1.2 bus2=BUSLVMAI581.1.2 Linecode=TRPX2/0AAAC length=22.7351 units=m !1ph_basekV=0.12 Group=1
new line.LV1FMAI16 bus1=BUSLVMAI625.1.2 bus2=BUSLVMAI581.1.2 Linecode=TRPX2/0AAAC length=8.0542 units=m !1ph_basekV=0.12 Group=1
new line.LV1FMAI17 bus1=BUSLVMAI583.1.2 bus2=BUSLVMAI582.1.2 Linecode=TRPX2/0AAAC length=34.3343 units=m !1ph_basekV=0.12 Group=1
new line.LV1FMAI18 bus1=BUSLVMAI609.1.2 bus2=BUSLVMAI582.1.2 Geometry=1FLV2/0AAAC2/0AAAC length=13.9933 units=m !1ph_basekV=0.12 Group=1
new line.LV1FMAI19 bus1=BUSLVMAI615.1.2 bus2=BUSLVMAI582.1.2 Linecode=TRPX2/0AAAC length=8.3619 units=m !1ph_basekV=0.12 Group=1
new line.LV1FMAI20 bus1=BUSLVMAI638.1.2 bus2=BUSLVMAI582.1.2 Linecode=TRPX2/0AAAC length=13.9933 units=m !1ph_basekV=0.12 Group=1
new line.LV1FMAI21 bus1=BUSLVMAI653.1.2 bus2=BUSLVMAI582.1.2 Linecode=TRPX2/0AAAC length=12.3474 units=m !1ph_basekV=0.12 Group=1
new line.LV1FMAI22 bus1=BUSLVMAI608.1.2 bus2=BUSLVMAI583.1.2 Linecode=TRPX2/0AAAC length=18.1477 units=m !1ph_basekV=0.12 Group=1
new line.LV1FMAI23 bus1=BUSLVMAI623.1.2 bus2=BUSLVMAI583.1.2 Linecode=TRPX2/0AAAC length=8.8679 units=m !1ph_basekV=0.12 Group=1
new line.LV1FMAI24 bus1=BUSLVMAI631.1.2 bus2=BUSLVMAI583.1.2 Linecode=TRPX2/0AAAC length=16.6823 units=m !1ph_basekV=0.12 Group=1
new line.LV1FMAI25 bus1=BUSLVMAI632.1.2 bus2=BUSLVMAI583.1.2 Linecode=TRPX2/0AAAC length=12.4613 units=m !1ph_basekV=0.12 Group=1
new line.LV1FMAI26 bus1=BUSLVMAI633.1.2 bus2=BUSLVMAI583.1.2 Linecode=TRPX2/0AAAC length=14.1440 units=m !1ph_basekV=0.12 Group=1
new line.LV1FMAI27 bus1=BUSLVMAI634.1.2 bus2=BUSLVMAI583.1.2 Linecode=TRPX2/0AAAC length=12.4614 units=m !1ph_basekV=0.12 Group=1
new line.LV1FMAI28 bus1=BUSLVMAI637.1.2 bus2=BUSLVMAI583.1.2 Linecode=TRPX2/0AAAC length=12.4613 units=m !1ph_basekV=0.12 Group=1
new line.LV1FMAI29 bus1=BUSLVMAI585.1.2 bus2=BUSLVMAI584.1.2 Linecode=TRPX2/0AAAC length=67.5727 units=m !1ph_basekV=0.12 Group=1
new line.LV1FMAI30 bus1=BUSLVMAI601.1.2 bus2=BUSLVMAI584.1.2 Linecode=TRPX2/0AAAC length=33.6759 units=m !1ph_basekV=0.12 Group=1
new line.LV1FMAI31 bus1=BUSLVMAI603.1.2 bus2=BUSLVMAI584.1.2 Linecode=TRPX2/0AAAC length=33.6759 units=m !1ph_basekV=0.12 Group=1
new line.LV1FMAI32 bus1=BUSLVMAI640.1.2 bus2=BUSLVMAI584.1.2 Linecode=TRPX2/0AAAC length=8.0379 units=m !1ph_basekV=0.12 Group=1
new line.LV1FMAI33 bus1=BUSLVMAI586.1.2 bus2=BUSLVMAI585.1.2 Linecode=TRPX2/0AAAC length=37.0929 units=m !1ph_basekV=0.12 Group=1
new line.LV1FMAI34 bus1=BUSLVMAI600.1.2 bus2=BUSLVMAI585.1.2 Linecode=TRPX2/0AAAC length=18.5986 units=m !1ph_basekV=0.12 Group=1
new line.LV1FMAI35 bus1=BUSLVMAI630.1.2 bus2=BUSLVMAI585.1.2 Linecode=TRPX2/0AAAC length=18.2559 units=m !1ph_basekV=0.12 Group=1
new line.LV1FMAI36 bus1=BUSLVMAI635.1.2 bus2=BUSLVMAI585.1.2 Geometry=1FLV2/0AAAC2/0AAAC length=18.2558 units=m !1ph_basekV=0.12 Group=1
new line.LV1FMAI37 bus1=BUSLVMAI599.1.2 bus2=BUSLVMAI586.1.2 Linecode=TRPX2/0AAAC length=0.9814 units=m !1ph_basekV=0.12 Group=1
new line.LV1FMAI38 bus1=BUSLVMAI587.1.2 bus2=BUSLVMAI210.1.2 Linecode=TRPX2/0AAAC length=2.4232 units=m !1ph_basekV=0.12 Group=2
new line.LV1FMAI39 bus1=BUSLVMAI588.1.2 bus2=BUSLVMAI587.1.2 Linecode=TRPX2/0AAAC length=43.1575 units=m !1ph_basekV=0.12 Group=2
new line.LV1FMAI40 bus1=BUSLVMAI589.1.2 bus2=BUSLVMAI587.1.2 Linecode=TRPX2/0AAAC length=47.2721 units=m !1ph_basekV=0.12 Group=2
new line.LV1FMAI41 bus1=BUSLVMAI598.1.2 bus2=BUSLVMAI587.1.2 Linecode=TRPX2/0AAAC length=13.7231 units=m !1ph_basekV=0.12 Group=2
new line.LV1FMAI42 bus1=BUSLVMAI641.1.2 bus2=BUSLVMAI587.1.2 Linecode=TRPX2/0AAAC length=16.0966 units=m !1ph_basekV=0.12 Group=2
new line.LV1FMAI43 bus1=BUSLVMAI590.1.2 bus2=BUSLVMAI589.1.2 Linecode=TRPX2/0AAAC length=24.8789 units=m !1ph_basekV=0.12 Group=2
new line.LV1FMAI44 bus1=BUSLVMAI645.1.2 bus2=BUSLVMAI589.1.2 Geometry=1FLV2/0AAAC2/0AAAC length=11.6219 units=m !1ph_basekV=0.12 Group=2
new line.LV1FMAI45 bus1=BUSLVMAI591.1.2 bus2=BUSLVMAI590.1.2 Linecode=TRPX2/0AAAC length=23.6883 units=m !1ph_basekV=0.12 Group=2
new line.LV1FMAI46 bus1=BUSLVMAI593.1.2 bus2=BUSLVMAI590.1.2 Linecode=TRPX2/0AAAC length=27.1394 units=m !1ph_basekV=0.12 Group=2
new line.LV1FMAI47 bus1=BUSLVMAI596.1.2 bus2=BUSLVMAI590.1.2 Linecode=TRPX2/0AAAC length=14.8535 units=m !1ph_basekV=0.12 Group=2
new line.LV1FMAI48 bus1=BUSLVMAI597.1.2 bus2=BUSLVMAI590.1.2 Geometry=1FLV2/0AAAC2/0AAAC length=12.8213 units=m !1ph_basekV=0.12 Group=2
new line.LV1FMAI49 bus1=BUSLVMAI622.1.2 bus2=BUSLVMAI590.1.2 Linecode=TRPX2/0AAAC length=12.7961 units=m !1ph_basekV=0.12 Group=2
new line.LV1FMAI50 bus1=BUSLVMAI639.1.2 bus2=BUSLVMAI590.1.2 Geometry=1FLV2/0AAAC2/0AAAC length=13.2678 units=m !1ph_basekV=0.12 Group=2
new line.LV1FMAI51 bus1=BUSLVMAI643.1.2 bus2=BUSLVMAI590.1.2 Linecode=TRPX2/0AAAC length=14.7127 units=m !1ph_basekV=0.12 Group=2
new line.LV1FMAI52 bus1=BUSLVMAI644.1.2 bus2=BUSLVMAI590.1.2 Linecode=TRPX2/0AAAC length=8.9017 units=m !1ph_basekV=0.12 Group=2
new line.LV1FMAI53 bus1=BUSLVMAI647.1.2 bus2=BUSLVMAI590.1.2 Geometry=1FLV2/0AAAC2/0AAAC length=14.3619 units=m !1ph_basekV=0.12 Group=2
new line.LV1FMAI54 bus1=BUSLVMAI651.1.2 bus2=BUSLVMAI590.1.2 Linecode=TRPX2/0AAAC length=8.9017 units=m !1ph_basekV=0.12 Group=2
new line.LV1FMAI55 bus1=BUSLVMAI592.1.2 bus2=BUSLVMAI591.1.2 Linecode=TRPX2/0AAAC length=23.2959 units=m !1ph_basekV=0.12 Group=2
new line.LV1FMAI56 bus1=BUSLVMAI604.1.2 bus2=BUSLVMAI591.1.2 Geometry=1FLV2/0AAAC2/0AAAC length=10.6554 units=m !1ph_basekV=0.12 Group=2
new line.LV1FMAI57 bus1=BUSLVMAI605.1.2 bus2=BUSLVMAI591.1.2 Linecode=TRPX2/0AAAC length=6.5604 units=m !1ph_basekV=0.12 Group=2
new line.LV1FMAI58 bus1=BUSLVMAI606.1.2 bus2=BUSLVMAI591.1.2 Linecode=TRPX2/0AAAC length=2.5821 units=m !1ph_basekV=0.12 Group=2
new line.LV1FMAI59 bus1=BUSLVMAI607.1.2 bus2=BUSLVMAI591.1.2 Linecode=TRPX2/0AAAC length=2.8666 units=m !1ph_basekV=0.12 Group=2
new line.LV1FMAI60 bus1=BUSLVMAI626.1.2 bus2=BUSLVMAI591.1.2 Linecode=TRPX2/0AAAC length=11.5512 units=m !1ph_basekV=0.12 Group=2
new line.LV1FMAI61 bus1=BUSLVMAI628.1.2 bus2=BUSLVMAI591.1.2 Linecode=TRPX2/0AAAC length=11.9923 units=m !1ph_basekV=0.12 Group=2
new line.LV1FMAI62 bus1=BUSLVMAI646.1.2 bus2=BUSLVMAI591.1.2 Linecode=TRPX2/0AAAC length=6.7089 units=m !1ph_basekV=0.12 Group=2
new line.LV1FMAI63 bus1=BUSLVMAI613.1.2 bus2=BUSLVMAI592.1.2 Linecode=TRPX2/0AAAC length=5.3424 units=m !1ph_basekV=0.12 Group=2
new line.LV1FMAI64 bus1=BUSLVMAI614.1.2 bus2=BUSLVMAI592.1.2 Linecode=TRPX2/0AAAC length=10.4187 units=m !1ph_basekV=0.12 Group=2
new line.LV1FMAI65 bus1=BUSLVMAI627.1.2 bus2=BUSLVMAI592.1.2 Linecode=TRPX2/0AAAC length=1.4818 units=m !1ph_basekV=0.12 Group=0
new line.LV1FMAI66 bus1=BUSLVMAI636.1.2 bus2=BUSLVMAI592.1.2 Linecode=TRPX2/0AAAC length=0.7409 units=m !1ph_basekV=0.12 Group=2
new line.LV1FMAI67 bus1=BUSLVMAI650.1.2 bus2=BUSLVMAI592.1.2 Linecode=TRPX2/0AAAC length=1.4817 units=m !1ph_basekV=0.12 Group=2
new line.LV1FMAI68 bus1=BUSLVMAI594.1.2 bus2=BUSLVMAI593.1.2 Linecode=TRPX2/0AAAC length=27.5677 units=m !1ph_basekV=0.12 Group=2
new line.LV1FMAI69 bus1=BUSLVMAI602.1.2 bus2=BUSLVMAI593.1.2 Linecode=TRPX2/0AAAC length=10.2762 units=m !1ph_basekV=0.12 Group=2
new line.LV1FMAI70 bus1=BUSLVMAI612.1.2 bus2=BUSLVMAI593.1.2 Linecode=TRPX2/0AAAC length=5.2099 units=m !1ph_basekV=0.12 Group=2
new line.LV1FMAI71 bus1=BUSLVMAI648.1.2 bus2=BUSLVMAI593.1.2 Geometry=1FLV2/0AAAC2/0AAAC length=5.2100 units=m !1ph_basekV=0.12 Group=2
new line.LV1FMAI72 bus1=BUSLVMAI649.1.2 bus2=BUSLVMAI593.1.2 Linecode=TRPX2/0AAAC length=10.2762 units=m !1ph_basekV=0.12 Group=2
new line.LV1FMAI73 bus1=BUSLVMAI595.1.2 bus2=BUSLVMAI594.1.2 Linecode=TRPX2/0AAAC length=28.7972 units=m !1ph_basekV=0.12 Group=2
new line.LV1FMAI74 bus1=BUSLVMAI629.1.2 bus2=BUSLVMAI594.1.2 Linecode=TRPX2/0AAAC length=11.8533 units=m !1ph_basekV=0.12 Group=2
new line.LV1FMAI75 bus1=BUSLVMAI652.1.2 bus2=BUSLVMAI594.1.2 Linecode=TRPX2/0AAAC length=13.3656 units=m !1ph_basekV=0.12 Group=2
new line.LV1FMAI76 bus1=BUSLVMAI627.1.2 bus2=BUSLVMAI636.1.2 Linecode=TRPX2/0AAAC length=0.7409 units=m !1ph_basekV=0.12 Group=2
new line.LV1FMAI77 bus1=BUSLVMAI654.1.2 bus2=BUSLVMAI157.1.2 Linecode=TRPX2/0AAAC length=2.4126 units=m !1ph_basekV=0.12 Group=3
new line.LV1FMAI78 bus1=BUSLVMAI656.1.2 bus2=BUSLVMAI654.1.2 Linecode=TRPX2/0AAAC length=24.2472 units=m !1ph_basekV=0.12 Group=3
new line.LV1FMAI79 bus1=BUSLVMAI1170.1.2 bus2=BUSLVMAI654.1.2 Linecode=TRPX2/0AAAC length=11.2887 units=m !1ph_basekV=0.12 Group=3
new line.LV1FMAI80 bus1=BUSLVMAI1398.1.2 bus2=BUSLVMAI654.1.2 Linecode=TRPX2/0AAAC length=5.8058 units=m !1ph_basekV=0.12 Group=3
new line.LV1FMAI81 bus1=BUSLVMAI655.1.2 bus2=BUSLVMAI656.1.2 Linecode=TRPX2/0AAAC length=5.7038 units=m !1ph_basekV=0.12 Group=3
new line.LV1FMAI82 bus1=BUSLVMAI683.1.2 bus2=BUSLVMAI655.1.2 Linecode=TRPX2/0AAAC length=39.8526 units=m !1ph_basekV=0.12 Group=3
new line.LV1FMAI83 bus1=BUSLVMAI1343.1.2 bus2=BUSLVMAI655.1.2 Linecode=TRPX2/0AAAC length=3.1957 units=m !1ph_basekV=0.12 Group=3
new line.LV1FMAI84 bus1=BUSLVMAI1404.1.2 bus2=BUSLVMAI655.1.2 Linecode=TRPX2/0AAAC length=3.1957 units=m !1ph_basekV=0.12 Group=3
new line.LV1FMAI85 bus1=BUSLVMAI657.1.2 bus2=BUSLVMAI656.1.2 Linecode=TRPX2/0AAAC length=9.4747 units=m !1ph_basekV=0.12 Group=3
new line.LV1FMAI86 bus1=BUSLVMAI1123.1.2 bus2=BUSLVMAI656.1.2 Linecode=TRPX2/0AAAC length=30.9984 units=m !1ph_basekV=0.12 Group=3
new line.LV1FMAI87 bus1=BUSLVMAI1208.1.2 bus2=BUSLVMAI657.1.2 Linecode=TRPX2/0AAAC length=4.7080 units=m !1ph_basekV=0.12 Group=3
new line.LV1FMAI88 bus1=BUSLVMAI658.1.2 bus2=BUSLVMAI659.1.2 Linecode=TRPX2/0AAAC length=44.5666 units=m !1ph_basekV=0.12 Group=4
new line.LV1FMAI89 bus1=BUSLVMAI1164.1.2 bus2=BUSLVMAI658.1.2 Linecode=TRPX2/0AAAC length=5.6562 units=m !1ph_basekV=0.12 Group=4
new line.LV1FMAI90 bus1=BUSLVMAI659.1.2 bus2=BUSLVMAI660.1.2 Linecode=TRPX2/0AAAC length=3.4333 units=m !1ph_basekV=0.12 Group=4
new line.LV1FMAI91 bus1=BUSLVMAI661.1.2 bus2=BUSLVMAI659.1.2 Linecode=TRPX2/0AAAC length=14.5266 units=m !1ph_basekV=0.12 Group=4
new line.LV1FMAI92 bus1=BUSLVMAI662.1.2 bus2=BUSLVMAI659.1.2 Linecode=TRPX2/0AAAC length=11.7971 units=m !1ph_basekV=0.12 Group=4
new line.LV1FMAI93 bus1=BUSLVMAI959.1.2 bus2=BUSLVMAI659.1.2 Linecode=TRPX2/0AAAC length=8.5487 units=m !1ph_basekV=0.12 Group=4
new line.LV1FMAI94 bus1=BUSLVMAI660.1.2 bus2=BUSLVMAI174.1.2 Linecode=TRPX2/0AAAC length=2.2621 units=m !1ph_basekV=0.12 Group=4
new line.LV1FMAI95 bus1=BUSLVMAI823.1.2 bus2=BUSLVMAI660.1.2 Linecode=TRPX2/0AAAC length=20.3754 units=m !1ph_basekV=0.12 Group=4
new line.LV1FMAI96 bus1=BUSLVMAI663.1.2 bus2=BUSLVMAI662.1.2 Linecode=TRPX2/0AAAC length=18.0645 units=m !1ph_basekV=0.12 Group=4
new line.LV1FMAI97 bus1=BUSLVMAI1114.1.2 bus2=BUSLVMAI663.1.2 Linecode=TRPX2/0AAAC length=5.2608 units=m !1ph_basekV=0.12 Group=4
new line.LV1FMAI98 bus1=BUSLVMAI1216.1.2 bus2=BUSLVMAI663.1.2 Linecode=TRPX2/0AAAC length=5.2608 units=m !1ph_basekV=0.12 Group=4
new line.LV1FMAI99 bus1=BUSLVMAI1259.1.2 bus2=BUSLVMAI663.1.2 Linecode=TRPX2/0AAAC length=10.2199 units=m !1ph_basekV=0.12 Group=4
new line.LV1FMAI100 bus1=BUSLVMAI1276.1.2 bus2=BUSLVMAI663.1.2 Linecode=TRPX2/0AAAC length=24.2841 units=m !1ph_basekV=0.12 Group=4
new line.LV1FMAI101 bus1=BUSLVMAI664.1.2 bus2=BUSLVMAI140.1.2 Linecode=TRPX2/0AAAC length=2.4189 units=m !1ph_basekV=0.12 Group=5
new line.LV1FMAI102 bus1=BUSLVMAI665.1.2 bus2=BUSLVMAI664.1.2 Linecode=TRPX2/0AAAC length=28.2170 units=m !1ph_basekV=0.12 Group=5
new line.LV1FMAI103 bus1=BUSLVMAI666.1.2 bus2=BUSLVMAI664.1.2 Linecode=TRPX2/0AAAC length=41.0645 units=m !1ph_basekV=0.12 Group=5
new line.LV1FMAI104 bus1=BUSLVMAI1018.1.2 bus2=BUSLVMAI664.1.2 Linecode=TRPX2/0AAAC length=13.3672 units=m !1ph_basekV=0.12 Group=5
new line.LV1FMAI105 bus1=BUSLVMAI1059.1.2 bus2=BUSLVMAI664.1.2 Linecode=TRPX2/0AAAC length=5.8313 units=m !1ph_basekV=0.12 Group=5
new line.LV1FMAI106 bus1=BUSLVMAI1171.1.2 bus2=BUSLVMAI664.1.2 Linecode=TRPX2/0AAAC length=5.8313 units=m !1ph_basekV=0.12 Group=5
new line.LV1FMAI107 bus1=BUSLVMAI1194.1.2 bus2=BUSLVMAI664.1.2 Linecode=TRPX2/0AAAC length=18.8484 units=m !1ph_basekV=0.12 Group=5
new line.LV1FMAI108 bus1=BUSLVMAI1424.1.2 bus2=BUSLVMAI665.1.2 Linecode=TRPX2/0AAAC length=29.1175 units=m !1ph_basekV=0.12 Group=5
new line.LV1FMAI109 bus1=BUSLVMAI998.1.2 bus2=BUSLVMAI666.1.2 Linecode=TRPX2/0AAAC length=6.9389 units=m !1ph_basekV=0.12 Group=5
new line.LV1FMAI110 bus1=BUSLVMAI1030.1.2 bus2=BUSLVMAI666.1.2 Linecode=TRPX2/0AAAC length=18.6171 units=m !1ph_basekV=0.12 Group=5
new line.LV1FMAI111 bus1=BUSLVMAI1090.1.2 bus2=BUSLVMAI666.1.2 Linecode=TRPX2/0AAAC length=6.2879 units=m !1ph_basekV=0.12 Group=5
new line.LV1FMAI112 bus1=BUSLVMAI1256.1.2 bus2=BUSLVMAI666.1.2 Linecode=TRPX2/0AAAC length=18.6170 units=m !1ph_basekV=0.12 Group=5
new line.LV1FMAI113 bus1=BUSLVMAI1369.1.2 bus2=BUSLVMAI666.1.2 Linecode=TRPX2/0AAAC length=6.2879 units=m !1ph_basekV=0.12 Group=0
new line.LV1FMAI114 bus1=BUSLVMAI1384.1.2 bus2=BUSLVMAI666.1.2 Linecode=TRPX2/0AAAC length=6.2880 units=m !1ph_basekV=0.12 Group=0
new line.LV1FMAI115 bus1=BUSLVMAI1385.1.2 bus2=BUSLVMAI666.1.2 Linecode=TRPX2/0AAAC length=3.1440 units=m !1ph_basekV=0.12 Group=5
new line.LV1FMAI116 bus1=BUSLVMAI1386.1.2 bus2=BUSLVMAI666.1.2 Linecode=TRPX2/0AAAC length=3.1440 units=m !1ph_basekV=0.12 Group=5
new line.LV1FMAI117 bus1=BUSLVMAI1387.1.2 bus2=BUSLVMAI666.1.2 Linecode=TRPX2/0AAAC length=6.2879 units=m !1ph_basekV=0.12 Group=5
new line.LV1FMAI118 bus1=BUSLVMAI667.1.2 bus2=BUSLVMAI139.1.2 Linecode=TRPX2/0AAAC length=2.3208 units=m !1ph_basekV=0.12 Group=6
new line.LV1FMAI119 bus1=BUSLVMAI668.1.2 bus2=BUSLVMAI667.1.2 Linecode=TRPX2/0AAAC length=42.8588 units=m !1ph_basekV=0.12 Group=6
new line.LV1FMAI120 bus1=BUSLVMAI1060.1.2 bus2=BUSLVMAI139.1.2 Linecode=TRPX2/0AAAC length=2.8711 units=m !1ph_basekV=0.12 Group=6
new line.LV1FMAI121 bus1=BUSLVMAI669.1.2 bus2=BUSLVMAI668.1.2 Linecode=TRPX2/0AAAC length=38.6485 units=m !1ph_basekV=0.12 Group=6
new line.LV1FMAI122 bus1=BUSLVMAI1362.1.2 bus2=BUSLVMAI668.1.2 Linecode=TRPX2/0AAAC length=7.2434 units=m !1ph_basekV=0.12 Group=6
new line.LV1FMAI123 bus1=BUSLVMAI1395.1.2 bus2=BUSLVMAI668.1.2 Linecode=TRPX2/0AAAC length=13.0024 units=m !1ph_basekV=0.12 Group=6
new line.LV1FMAI124 bus1=BUSLVMAI1099.1.2 bus2=BUSLVMAI669.1.2 Linecode=TRPX2/0AAAC length=15.9733 units=m !1ph_basekV=0.12 Group=6
new line.LV1FMAI125 bus1=BUSLVMAI1100.1.2 bus2=BUSLVMAI669.1.2 Linecode=TRPX2/0AAAC length=17.6209 units=m !1ph_basekV=0.12 Group=6
new line.LV1FMAI126 bus1=BUSLVMAI1128.1.2 bus2=BUSLVMAI669.1.2 Linecode=TRPX2/0AAAC length=4.4345 units=m !1ph_basekV=0.12 Group=6
new line.LV1FMAI127 bus1=BUSLVMAI1142.1.2 bus2=BUSLVMAI669.1.2 Geometry=1FLV2/0AAAC2/0AAAC length=17.6226 units=m !1ph_basekV=0.12 Group=6
new line.LV1FMAI128 bus1=BUSLVMAI1151.1.2 bus2=BUSLVMAI669.1.2 Linecode=TRPX2/0AAAC length=12.2603 units=m !1ph_basekV=0.12 Group=6
new line.LV1FMAI129 bus1=BUSLVMAI1162.1.2 bus2=BUSLVMAI669.1.2 Linecode=TRPX2/0AAAC length=17.6207 units=m !1ph_basekV=0.12 Group=6
new line.LV1FMAI130 bus1=BUSLVMAI1394.1.2 bus2=BUSLVMAI669.1.2 Linecode=TRPX2/0AAAC length=12.2605 units=m !1ph_basekV=0.12 Group=6
new line.LV1FMAI131 bus1=BUSLVMAI1405.1.2 bus2=BUSLVMAI669.1.2 Linecode=TRPX2/0AAAC length=4.4339 units=m !1ph_basekV=0.12 Group=6
new line.LV1FMAI132 bus1=BUSLVMAI1426.1.2 bus2=BUSLVMAI669.1.2 Linecode=TRPX2/0AAAC length=15.9705 units=m !1ph_basekV=0.12 Group=6
new line.LV1FMAI133 bus1=BUSLVMAI670.1.2 bus2=BUSLVMAI151.1.2 Linecode=TRPX2/0AAAC length=2.4382 units=m !1ph_basekV=0.12 Group=7
new line.LV1FMAI134 bus1=BUSLVMAI671.1.2 bus2=BUSLVMAI670.1.2 Linecode=TRPX2/0AAAC length=34.9718 units=m !1ph_basekV=0.12 Group=7
new line.LV1FMAI135 bus1=BUSLVMAI674.1.2 bus2=BUSLVMAI670.1.2 Linecode=TRPX2/0AAAC length=38.4406 units=m !1ph_basekV=0.12 Group=7
new line.LV1FMAI136 bus1=BUSLVMAI1089.1.2 bus2=BUSLVMAI670.1.2 Linecode=TRPX2/0AAAC length=10.9073 units=m !1ph_basekV=0.12 Group=7
new line.LV1FMAI137 bus1=BUSLVMAI1316.1.2 bus2=BUSLVMAI151.1.2 Linecode=TRPX2/0AAAC length=7.1776 units=m !1ph_basekV=0.12 Group=7
new line.LV1FMAI138 bus1=BUSLVMAI672.1.2 bus2=BUSLVMAI671.1.2 Linecode=TRPX2/0AAAC length=35.9412 units=m !1ph_basekV=0.12 Group=7
new line.LV1FMAI139 bus1=BUSLVMAI1273.1.2 bus2=BUSLVMAI671.1.2 Linecode=TRPX2/0AAAC length=11.5676 units=m !1ph_basekV=0.12 Group=7
new line.LV1FMAI140 bus1=BUSLVMAI1431.1.2 bus2=BUSLVMAI671.1.2 Linecode=TRPX2/0AAAC length=7.0372 units=m !1ph_basekV=0.12 Group=7
new line.LV1FMAI141 bus1=BUSLVMAI673.1.2 bus2=BUSLVMAI672.1.2 Linecode=TRPX2/0AAAC length=39.9165 units=m !1ph_basekV=0.12 Group=7
new line.LV1FMAI142 bus1=BUSLVMAI1152.1.2 bus2=BUSLVMAI672.1.2 Linecode=TRPX2/0AAAC length=10.5634 units=m !1ph_basekV=0.12 Group=7
new line.LV1FMAI143 bus1=BUSLVMAI1168.1.2 bus2=BUSLVMAI672.1.2 Linecode=TRPX2/0AAAC length=10.5397 units=m !1ph_basekV=0.12 Group=7
new line.LV1FMAI144 bus1=BUSLVMAI1264.1.2 bus2=BUSLVMAI672.1.2 Linecode=TRPX2/0AAAC length=10.4963 units=m !1ph_basekV=0.12 Group=7
new line.LV1FMAI145 bus1=BUSLVMAI1280.1.2 bus2=BUSLVMAI672.1.2 Linecode=TRPX2/0AAAC length=12.0758 units=m !1ph_basekV=0.12 Group=7
new line.LV1FMAI146 bus1=BUSLVMAI675.1.2 bus2=BUSLVMAI674.1.2 Linecode=TRPX2/0AAAC length=39.5030 units=m !1ph_basekV=0.12 Group=7
new line.LV1FMAI147 bus1=BUSLVMAI1341.1.2 bus2=BUSLVMAI674.1.2 Linecode=TRPX2/0AAAC length=20.6656 units=m !1ph_basekV=0.12 Group=7
new line.LV1FMAI148 bus1=BUSLVMAI1360.1.2 bus2=BUSLVMAI675.1.2 Linecode=TRPX2/0AAAC length=3.8642 units=m !1ph_basekV=0.12 Group=7
new line.LV1FMAI149 bus1=BUSLVMAI1372.1.2 bus2=BUSLVMAI675.1.2 Linecode=TRPX2/0AAAC length=3.8597 units=m !1ph_basekV=0.12 Group=7
new line.LV1FMAI150 bus1=BUSLVMAI676.1.2 bus2=BUSLVMAI138.1.2 Linecode=TRPX2/0AAAC length=2.4188 units=m !1ph_basekV=0.12 Group=8
new line.LV1FMAI151 bus1=BUSLVMAI677.1.2 bus2=BUSLVMAI676.1.2 Linecode=TRPX2/0AAAC length=47.5351 units=m !1ph_basekV=0.12 Group=8
new line.LV1FMAI152 bus1=BUSLVMAI678.1.2 bus2=BUSLVMAI676.1.2 Linecode=TRPX2/0AAAC length=70.0095 units=m !1ph_basekV=0.12 Group=8
new line.LV1FMAI153 bus1=BUSLVMAI1189.1.2 bus2=BUSLVMAI676.1.2 Linecode=TRPX2/0AAAC length=17.9298 units=m !1ph_basekV=0.12 Group=8
new line.LV1FMAI154 bus1=BUSLVMAI1214.1.2 bus2=BUSLVMAI676.1.2 Linecode=TRPX2/0AAAC length=17.9298 units=m !1ph_basekV=0.12 Group=8
new line.LV1FMAI155 bus1=BUSLVMAI868.1.2 bus2=BUSLVMAI138.1.2 Linecode=TRPX2/0AAAC length=3.7235 units=m !1ph_basekV=0.12 Group=8
new line.LV1FMAI156 bus1=BUSLVMAI869.1.2 bus2=BUSLVMAI138.1.2 Linecode=TRPX2/0AAAC length=33.2779 units=m !1ph_basekV=0.12 Group=8
new line.LV1FMAI157 bus1=BUSLVMAI1288.1.2 bus2=BUSLVMAI138.1.2 Geometry=1FLV2/0AAAC2/0AAAC length=33.2779 units=m !1ph_basekV=0.12 Group=8
new line.LV1FMAI158 bus1=BUSLVMAI1354.1.2 bus2=BUSLVMAI677.1.2 Linecode=TRPX2/0AAAC length=21.4544 units=m !1ph_basekV=0.12 Group=8
new line.LV1FMAI159 bus1=BUSLVMAI1388.1.2 bus2=BUSLVMAI677.1.2 Linecode=TRPX2/0AAAC length=21.4544 units=m !1ph_basekV=0.12 Group=8
new line.LV1FMAI160 bus1=BUSLVMAI1432.1.2 bus2=BUSLVMAI677.1.2 Linecode=TRPX2/0AAAC length=5.5626 units=m !1ph_basekV=0.12 Group=8
new line.LV1FMAI161 bus1=BUSLVMAI679.1.2 bus2=BUSLVMAI678.1.2 Linecode=TRPX2/0AAAC length=32.6600 units=m !1ph_basekV=0.12 Group=8
new line.LV1FMAI162 bus1=BUSLVMAI1198.1.2 bus2=BUSLVMAI678.1.2 Linecode=TRPX2/0AAAC length=16.3117 units=m !1ph_basekV=0.12 Group=0
new line.LV1FMAI163 bus1=BUSLVMAI1222.1.2 bus2=BUSLVMAI678.1.2 Linecode=TRPX2/0AAAC length=16.3116 units=m !1ph_basekV=0.12 Group=0
new line.LV1FMAI164 bus1=BUSLVMAI1246.1.2 bus2=BUSLVMAI678.1.2 Linecode=TRPX2/0AAAC length=8.1559 units=m !1ph_basekV=0.12 Group=8
new line.LV1FMAI165 bus1=BUSLVMAI1261.1.2 bus2=BUSLVMAI678.1.2 Linecode=TRPX2/0AAAC length=8.1558 units=m !1ph_basekV=0.12 Group=8
new line.LV1FMAI166 bus1=BUSLVMAI1269.1.2 bus2=BUSLVMAI678.1.2 Linecode=TRPX2/0AAAC length=16.3115 units=m !1ph_basekV=0.12 Group=0
new line.LV1FMAI167 bus1=BUSLVMAI1271.1.2 bus2=BUSLVMAI678.1.2 Linecode=TRPX2/0AAAC length=8.1558 units=m !1ph_basekV=0.12 Group=8
new line.LV1FMAI168 bus1=BUSLVMAI680.1.2 bus2=BUSLVMAI679.1.2 Linecode=TRPX2/0AAAC length=40.3917 units=m !1ph_basekV=0.12 Group=8
new line.LV1FMAI169 bus1=BUSLVMAI1096.1.2 bus2=BUSLVMAI679.1.2 Linecode=TRPX2/0AAAC length=24.9749 units=m !1ph_basekV=0.12 Group=8
new line.LV1FMAI170 bus1=BUSLVMAI681.1.2 bus2=BUSLVMAI680.1.2 Linecode=TRPX2/0AAAC length=40.3358 units=m !1ph_basekV=0.12 Group=8
new line.LV1FMAI171 bus1=BUSLVMAI682.1.2 bus2=BUSLVMAI681.1.2 Linecode=TRPX2/0AAAC length=39.2472 units=m !1ph_basekV=0.12 Group=8
new line.LV1FMAI172 bus1=BUSLVMAI1087.1.2 bus2=BUSLVMAI681.1.2 Linecode=TRPX2/0AAAC length=9.1669 units=m !1ph_basekV=0.12 Group=8
new line.LV1FMAI173 bus1=BUSLVMAI857.1.2 bus2=BUSLVMAI683.1.2 Linecode=TRPX2/0AAAC length=32.4141 units=m !1ph_basekV=0.12 Group=3
new line.LV1FMAI174 bus1=BUSLVMAI885.1.2 bus2=BUSLVMAI683.1.2 Linecode=TRPX2/0AAAC length=11.3062 units=m !1ph_basekV=0.12 Group=3
new line.LV1FMAI175 bus1=BUSLVMAI1080.1.2 bus2=BUSLVMAI683.1.2 Linecode=TRPX2/0AAAC length=9.0320 units=m !1ph_basekV=0.12 Group=3
new line.LV1FMAI176 bus1=BUSLVMAI1418.1.2 bus2=BUSLVMAI683.1.2 Linecode=TRPX2/0AAAC length=18.5354 units=m !1ph_basekV=0.12 Group=3
new line.LV1FMAI177 bus1=BUSLVMAI684.1.2 bus2=BUSLVMAI131.1.2 Linecode=TRPX2/0AAAC length=2.2087 units=m !1ph_basekV=0.12 Group=9
new line.LV1FMAI178 bus1=BUSLVMAI685.1.2 bus2=BUSLVMAI684.1.2 Linecode=TRPX2/0AAAC length=12.2148 units=m !1ph_basekV=0.12 Group=9
new line.LV1FMAI179 bus1=BUSLVMAI687.1.2 bus2=BUSLVMAI684.1.2 Linecode=TRPX2/0AAAC length=24.6855 units=m !1ph_basekV=0.12 Group=9
new line.LV1FMAI180 bus1=BUSLVMAI688.1.2 bus2=BUSLVMAI684.1.2 Linecode=TRPX2/0AAAC length=40.9956 units=m !1ph_basekV=0.12 Group=9
new line.LV1FMAI181 bus1=BUSLVMAI931.1.2 bus2=BUSLVMAI131.1.2 Geometry=1FLV2/0AAAC2/0AAAC length=5.5344 units=m !1ph_basekV=0.12 Group=9
new line.LV1FMAI182 bus1=BUSLVMAI686.1.2 bus2=BUSLVMAI685.1.2 Linecode=TRPX2/0AAAC length=14.7648 units=m !1ph_basekV=0.12 Group=9
new line.LV1FMAI183 bus1=BUSLVMAI929.1.2 bus2=BUSLVMAI685.1.2 Linecode=TRPX2/0AAAC length=11.0867 units=m !1ph_basekV=0.12 Group=9
new line.LV1FMAI184 bus1=BUSLVMAI1262.1.2 bus2=BUSLVMAI685.1.2 Linecode=TRPX2/0AAAC length=3.5275 units=m !1ph_basekV=0.12 Group=9
new line.LV1FMAI185 bus1=BUSLVMAI928.1.2 bus2=BUSLVMAI686.1.2 Linecode=TRPX2/0AAAC length=12.5990 units=m !1ph_basekV=0.12 Group=9
new line.LV1FMAI186 bus1=BUSLVMAI1126.1.2 bus2=BUSLVMAI686.1.2 Linecode=TRPX2/0AAAC length=15.7645 units=m !1ph_basekV=0.12 Group=0
new line.LV1FMAI187 bus1=BUSLVMAI1127.1.2 bus2=BUSLVMAI686.1.2 Linecode=TRPX2/0AAAC length=12.5990 units=m !1ph_basekV=0.12 Group=9
new line.LV1FMAI188 bus1=BUSLVMAI1243.1.2 bus2=BUSLVMAI686.1.2 Linecode=TRPX2/0AAAC length=2.4993 units=m !1ph_basekV=0.12 Group=9
new line.LV1FMAI189 bus1=BUSLVMAI1281.1.2 bus2=BUSLVMAI686.1.2 Linecode=TRPX2/0AAAC length=15.7643 units=m !1ph_basekV=0.12 Group=0
new line.LV1FMAI190 bus1=BUSLVMAI1290.1.2 bus2=BUSLVMAI686.1.2 Linecode=TRPX2/0AAAC length=7.8822 units=m !1ph_basekV=0.12 Group=9
new line.LV1FMAI191 bus1=BUSLVMAI1299.1.2 bus2=BUSLVMAI686.1.2 Linecode=TRPX2/0AAAC length=7.8822 units=m !1ph_basekV=0.12 Group=9
new line.LV1FMAI192 bus1=BUSLVMAI1324.1.2 bus2=BUSLVMAI686.1.2 Linecode=TRPX2/0AAAC length=15.7643 units=m !1ph_basekV=0.12 Group=9
new line.LV1FMAI193 bus1=BUSLVMAI1443.1.2 bus2=BUSLVMAI686.1.2 Linecode=TRPX2/0AAAC length=31.1057 units=m !1ph_basekV=0.12 Group=0
new line.LV1FMAI194 bus1=BUSLVMAI1444.1.2 bus2=BUSLVMAI686.1.2 Linecode=TRPX2/0AAAC length=31.1117 units=m !1ph_basekV=0.12 Group=0
new line.LV1FMAI195 bus1=BUSLVMAI1445.1.2 bus2=BUSLVMAI686.1.2 Linecode=TRPX2/0AAAC length=15.5276 units=m !1ph_basekV=0.12 Group=9
new line.LV1FMAI196 bus1=BUSLVMAI1446.1.2 bus2=BUSLVMAI686.1.2 Linecode=TRPX2/0AAAC length=15.5321 units=m !1ph_basekV=0.12 Group=9
new line.LV1FMAI197 bus1=BUSLVMAI1447.1.2 bus2=BUSLVMAI686.1.2 Linecode=TRPX2/0AAAC length=31.3084 units=m !1ph_basekV=0.12 Group=9
new line.LV1FMAI198 bus1=BUSLVMAI1448.1.2 bus2=BUSLVMAI686.1.2 Linecode=TRPX2/0AAAC length=30.9248 units=m !1ph_basekV=0.12 Group=9
new line.LV1FMAI199 bus1=BUSLVMAI1449.1.2 bus2=BUSLVMAI686.1.2 Linecode=TRPX2/0AAAC length=31.0356 units=m !1ph_basekV=0.12 Group=0
new line.LV1FMAI200 bus1=BUSLVMAI1450.1.2 bus2=BUSLVMAI686.1.2 Linecode=TRPX2/0AAAC length=31.0440 units=m !1ph_basekV=0.12 Group=9
new line.LV1FMAI201 bus1=BUSLVMAI1451.1.2 bus2=BUSLVMAI686.1.2 Linecode=TRPX2/0AAAC length=15.5125 units=m !1ph_basekV=0.12 Group=9
new line.LV1FMAI202 bus1=BUSLVMAI895.1.2 bus2=BUSLVMAI687.1.2 Linecode=TRPX2/0AAAC length=9.8259 units=m !1ph_basekV=0.12 Group=0
new line.LV1FMAI203 bus1=BUSLVMAI896.1.2 bus2=BUSLVMAI687.1.2 Linecode=TRPX2/0AAAC length=4.9129 units=m !1ph_basekV=0.12 Group=9
new line.LV1FMAI204 bus1=BUSLVMAI930.1.2 bus2=BUSLVMAI687.1.2 Linecode=TRPX2/0AAAC length=15.3988 units=m !1ph_basekV=0.12 Group=9
new line.LV1FMAI205 bus1=BUSLVMAI1014.1.2 bus2=BUSLVMAI687.1.2 Linecode=TRPX2/0AAAC length=9.8260 units=m !1ph_basekV=0.12 Group=0
new line.LV1FMAI206 bus1=BUSLVMAI1028.1.2 bus2=BUSLVMAI687.1.2 Linecode=TRPX2/0AAAC length=9.8260 units=m !1ph_basekV=0.12 Group=0
new line.LV1FMAI207 bus1=BUSLVMAI1223.1.2 bus2=BUSLVMAI687.1.2 Linecode=TRPX2/0AAAC length=4.9130 units=m !1ph_basekV=0.12 Group=9
new line.LV1FMAI208 bus1=BUSLVMAI1224.1.2 bus2=BUSLVMAI687.1.2 Linecode=TRPX2/0AAAC length=4.9130 units=m !1ph_basekV=0.12 Group=9
new line.LV1FMAI209 bus1=BUSLVMAI1328.1.2 bus2=BUSLVMAI687.1.2 Linecode=TRPX2/0AAAC length=21.0841 units=m !1ph_basekV=0.12 Group=9
new line.LV1FMAI210 bus1=BUSLVMAI689.1.2 bus2=BUSLVMAI114.1.2 Linecode=TRPX2/0AAAC length=2.8785 units=m !1ph_basekV=0.12 Group=10
new line.LV1FMAI211 bus1=BUSLVMAI690.1.2 bus2=BUSLVMAI689.1.2 Linecode=TRPX2/0AAAC length=39.7541 units=m !1ph_basekV=0.12 Group=10
new line.LV1FMAI212 bus1=BUSLVMAI694.1.2 bus2=BUSLVMAI689.1.2 Linecode=TRPX2/0AAAC length=38.2097 units=m !1ph_basekV=0.12 Group=10
new line.LV1FMAI213 bus1=BUSLVMAI697.1.2 bus2=BUSLVMAI689.1.2 Linecode=TRPX2/0AAAC length=44.6659 units=m !1ph_basekV=0.12 Group=10
new line.LV1FMAI214 bus1=BUSLVMAI1254.1.2 bus2=BUSLVMAI689.1.2 Linecode=TRPX2/0AAAC length=17.0079 units=m !1ph_basekV=0.12 Group=10
new line.LV1FMAI215 bus1=BUSLVMAI1325.1.2 bus2=BUSLVMAI689.1.2 Linecode=TRPX2/0AAAC length=9.4635 units=m !1ph_basekV=0.12 Group=10
new line.LV1FMAI216 bus1=BUSLVMAI864.1.2 bus2=BUSLVMAI114.1.2 Linecode=TRPX2/0AAAC length=1.4363 units=m !1ph_basekV=0.12 Group=10
new line.LV1FMAI217 bus1=BUSLVMAI1104.1.2 bus2=BUSLVMAI114.1.2 Linecode=TRPX2/0AAAC length=1.4364 units=m !1ph_basekV=0.12 Group=0
new line.LV1FMAI218 bus1=BUSLVMAI1154.1.2 bus2=BUSLVMAI114.1.2 Linecode=TRPX2/0AAAC length=1.4363 units=m !1ph_basekV=0.12 Group=10
new line.LV1FMAI219 bus1=BUSLVMAI1215.1.2 bus2=BUSLVMAI114.1.2 Linecode=TRPX2/0AAAC length=0.7182 units=m !1ph_basekV=0.12 Group=10
new line.LV1FMAI220 bus1=BUSLVMAI691.1.2 bus2=BUSLVMAI690.1.2 Linecode=TRPX2/0AAAC length=45.6449 units=m !1ph_basekV=0.12 Group=10
new line.LV1FMAI221 bus1=BUSLVMAI1040.1.2 bus2=BUSLVMAI691.1.2 Linecode=TRPX2/0AAAC length=16.5497 units=m !1ph_basekV=0.12 Group=10
new line.LV1FMAI222 bus1=BUSLVMAI1050.1.2 bus2=BUSLVMAI691.1.2 Linecode=TRPX2/0AAAC length=16.5498 units=m !1ph_basekV=0.12 Group=10
new line.LV1FMAI223 bus1=BUSLVMAI1225.1.2 bus2=BUSLVMAI691.1.2 Linecode=TRPX2/0AAAC length=19.6830 units=m !1ph_basekV=0.12 Group=0
new line.LV1FMAI224 bus1=BUSLVMAI1228.1.2 bus2=BUSLVMAI691.1.2 Linecode=TRPX2/0AAAC length=19.6829 units=m !1ph_basekV=0.12 Group=0
new line.LV1FMAI225 bus1=BUSLVMAI1229.1.2 bus2=BUSLVMAI691.1.2 Linecode=TRPX2/0AAAC length=9.8414 units=m !1ph_basekV=0.12 Group=10
new line.LV1FMAI226 bus1=BUSLVMAI1287.1.2 bus2=BUSLVMAI691.1.2 Linecode=TRPX2/0AAAC length=9.8415 units=m !1ph_basekV=0.12 Group=10
new line.LV1FMAI227 bus1=BUSLVMAI1402.1.2 bus2=BUSLVMAI691.1.2 Linecode=TRPX2/0AAAC length=19.6830 units=m !1ph_basekV=0.12 Group=10
new line.LV1FMAI228 bus1=BUSLVMAI1413.1.2 bus2=BUSLVMAI691.1.2 Linecode=TRPX2/0AAAC length=16.5497 units=m !1ph_basekV=0.12 Group=10