new load.n_1FMAI1 bus1=BUSLVMAI1509.1.2 kV=0.208 model=1 conn=wye kW=1.0 kvar=0.1 status=variable phases=1 daily=curve7911_00R !kWh=7942 class=R !Group=48
new load.n_1FMAI2 bus1=BUSLVMAI1599.1.2 kV=0.208 model=1 conn=wye kW=1.0 kvar=0.1 status=variable phases=1 daily=curve641_00R !kWh=646 class=R !Group=47
new load.n_1FMAI3 bus1=BUSLVMAI1511.1 kV=0.12 model=1 conn=wye kW=1.0 kvar=0.1 status=variable phases=1 daily=curve167_00R !kWh=169 class=R !Group=47
new load.n_1FMAI4 bus1=BUSLVMAI1529.1 kV=0.12 model=1 conn=wye kW=1.0 kvar=0.1 status=variable phases=1 daily=curve53_00R !kWh=53 class=R !Group=47
new load.n_1FMAI5 bus1=BUSLVMAI1591.1 kV=0.12 model=1 conn=wye kW=1.0 kvar=0.1 status=variable phases=1 daily=curve287_43R !kWh=289 class=R !Group=47
new load.n_1FMAI6 bus1=BUSLVMAI1514.1.2 kV=0.208 model=1 conn=wye kW=1.0 kvar=0.1 status=variable phases=1 daily=curve61_00R !kWh=62 class=R !Group=47
new load.n_1FMAI7 bus1=BUSLVMAI1512.1.2 kV=0.208 model=1 conn=wye kW=1.0 kvar=0.1 status=variable phases=1 daily=curve294_98R !kWh=296 class=R !Group=47
new load.n_1FMAI8 bus1=BUSLVMAI1558.1.2 kV=0.208 model=1 conn=wye kW=1.0 kvar=0.1 status=variable phases=1 daily=curve464_49R !kWh=466 class=R !Group=47
new load.n_1FMAI9 bus1=BUSLVMAI1517.1.2 kV=0.208 model=1 conn=wye kW=1.0 kvar=0.1 status=variable phases=1 daily=curve505_37R !kWh=502 class=R !Group=40
new load.n_1FMAI10 bus1=BUSLVMAI8303.1.2 kV=0.208 model=1 conn=wye kW=1.0 kvar=0.1 status=variable phases=1 daily=curve610_00R !kWh=611 class=R !Group=42
new load.n_1FMAI11 bus1=BUSLVMAI8304.1.2 kV=0.208 model=1 conn=wye kW=1.0 kvar=0.1 status=variable phases=1 daily=curve556_00R !kWh=560 class=R !Group=42
new load.n_1FMAI12 bus1=BUSLVMAI8305.1 kV=0.12 model=1 conn=wye kW=1.0 kvar=0.1 status=variable phases=1 daily=curve33_00R !kWh=33 class=R !Group=42
new load.n_1FMAI13 bus1=BUSLVMAI8306.1.2 kV=0.208 model=1 conn=wye kW=1.0 kvar=0.1 status=variable phases=1 daily=curve582_00R !kWh=588 class=R !Group=42
new load.n_1FMAI14 bus1=BUSLVMAI1518.1.2 kV=0.208 model=1 conn=wye kW=1.0 kvar=0.3 status=variable phases=1 daily=curve64_00C !kWh=64 class=C !Group=48
new load.n_1FMAI15 bus1=BUSLVMAI1605.1.2 kV=0.208 model=1 conn=wye kW=1.0 kvar=0.1 status=variable phases=1 daily=curve264_00R !kWh=262 class=R !Group=47
new load.n_1FMAI16 bus1=BUSLVMAI1521.1.2 kV=0.208 model=1 conn=wye kW=1.0 kvar=0.1 status=variable phases=1 daily=curve445_44R !kWh=441 class=R !Group=48
new load.n_1FMAI17 bus1=BUSLVMAI1520.1.2 kV=0.208 model=1 conn=wye kW=1.0 kvar=0.1 status=variable phases=1 daily=curve98_00R !kWh=98 class=R !Group=48
new load.n_1FMAI18 bus1=BUSLVMAI1575.1 kV=0.12 model=1 conn=wye kW=1.0 kvar=0.1 status=variable phases=1 daily=curve188_00R !kWh=189 class=R !Group=48
new load.n_1FMAI19 bus1=BUSLVMAI1523.1 kV=0.12 model=1 conn=wye kW=1.0 kvar=0.1 status=variable phases=1 daily=curve188_00R !kWh=188 class=R !Group=46
new load.n_1FMAI20 bus1=BUSLVMAI1524.1.2 kV=0.208 model=1 conn=wye kW=1.0 kvar=0.1 status=variable phases=1 daily=curve353_33R !kWh=350 class=R !Group=46
new load.n_1FMAI21 bus1=BUSLVMAI1525.1 kV=0.12 model=1 conn=wye kW=1.0 kvar=0.1 status=variable phases=1 daily=curve115_00R !kWh=115 class=R !Group=46
new load.n_1FMAI22 bus1=BUSLVMAI1526.1 kV=0.12 model=1 conn=wye kW=1.0 kvar=0.1 status=variable phases=1 daily=curve143_00R !kWh=143 class=R !Group=46
new load.n_1FMAI23 bus1=BUSLVMAI8418.1.2 kV=0.208 model=1 conn=wye kW=1.0 kvar=0.1 status=variable phases=1 daily=curve269_45R !kWh=268 class=R !Group=220
new load.n_1FMAI24 bus1=BUSLVMAI1527.1.2 kV=0.208 model=1 conn=wye kW=1.0 kvar=0.3 status=variable phases=1 daily=curve1005_00C !kWh=1005 class=C !Group=41
new load.n_1FMAI25 bus1=BUSLVMAI1528.1.2 kV=0.208 model=1 conn=wye kW=1.0 kvar=0.1 status=variable phases=1 daily=curve95_00R !kWh=96 class=R !Group=41
new load.n_1FMAI26 bus1=BUSLVMAI1544.1.2 kV=0.208 model=1 conn=wye kW=1.0 kvar=0.1 status=variable phases=1 daily=curve139_43R !kWh=138 class=R !Group=47
new load.n_1FMAI27 bus1=BUSLVMAI1530.1.2 kV=0.208 model=1 conn=wye kW=1.0 kvar=0.1 status=variable phases=1 daily=curve1138_00R !kWh=1127 class=R !Group=47
new load.n_1FMAI28 bus1=BUSLVMAI1531.1 kV=0.12 model=1 conn=wye kW=1.0 kvar=0.1 status=variable phases=1 daily=curve332_00R !kWh=334 class=R !Group=47
new load.n_1FMAI29 bus1=BUSLVMAI1541.1.2 kV=0.208 model=1 conn=wye kW=1.0 kvar=0.1 status=variable phases=1 daily=curve172_00R !kWh=171 class=R !Group=47
new load.n_1FMAI30 bus1=BUSLVMAI1608.1.2 kV=0.208 model=1 conn=wye kW=1.0 kvar=0.1 status=variable phases=1 daily=curve47_00R !kWh=47 class=R !Group=42
new load.n_1FMAI31 bus1=BUSLVMAI8358.1.2 kV=0.208 model=1 conn=wye kW=1.0 kvar=0.1 status=variable phases=1 daily=curve778_00R !kWh=770 class=R !Group=213
new load.n_1FMAI32 bus1=BUSLVMAI1534.1.2 kV=0.208 model=1 conn=wye kW=1.0 kvar=0.1 status=variable phases=1 daily=curve15_00R !kWh=15 class=R !Group=47
new load.n_1FMAI33 bus1=BUSLVMAI1535.1 kV=0.12 model=1 conn=wye kW=1.0 kvar=0.1 status=variable phases=1 daily=curve107_00R !kWh=108 class=R !Group=46
new load.n_1FMAI34 bus1=BUSLVMAI8368.1.2 kV=0.208 model=1 conn=wye kW=1.0 kvar=0.1 status=variable phases=1 daily=curve139_43R !kWh=138 class=R !Group=214
new load.n_1FMAI35 bus1=BUSLVMAI8369.1.2 kV=0.208 model=1 conn=wye kW=1.0 kvar=0.1 status=variable phases=1 daily=curve219_48R !kWh=219 class=R !Group=213
new load.n_1FMAI36 bus1=BUSLVMAI1568.1.2 kV=0.208 model=1 conn=wye kW=1.0 kvar=0.1 status=variable phases=1 daily=curve150_00R !kWh=149 class=R !Group=47
new load.n_1FMAI37 bus1=BUSLVMAI8373.1.2 kV=0.208 model=1 conn=wye kW=1.0 kvar=0.1 status=variable phases=1 daily=curve91_00R !kWh=92 class=R !Group=214
new load.n_1FMAI38 bus1=BUSLVMAI1565.1.2 kV=0.208 model=1 conn=wye kW=1.0 kvar=0.1 status=variable phases=1 daily=curve188_00R !kWh=186 class=R !Group=42
new load.n_1FMAI39 bus1=BUSLVMAI8428.1.2 kV=0.208 model=1 conn=wye kW=1.0 kvar=0.1 status=variable phases=1 daily=curve235_80R !kWh=236 class=R !Group=213
new load.n_1FMAI40 bus1=BUSLVMAI8432.1.2 kV=0.208 model=1 conn=wye kW=1.0 kvar=0.1 status=variable phases=1 daily=curve625_00R !kWh=626 class=R !Group=212
new load.n_1FMAI41 bus1=BUSLVMAI1538.1.2 kV=0.208 model=1 conn=wye kW=1.0 kvar=0.1 status=variable phases=1 daily=curve132_00R !kWh=134 class=R !Group=47
new load.n_1FMAI42 bus1=BUSLVMAI8320.1.2 kV=0.208 model=1 conn=wye kW=1.0 kvar=0.1 status=variable phases=1 daily=curve127_00R !kWh=129 class=R !Group=214
new load.n_1FMAI43 bus1=BUSLVMAI1539.1 kV=0.12 model=1 conn=wye kW=1.0 kvar=0.1 status=variable phases=1 daily=curve127_00R !kWh=128 class=R !Group=47
new load.n_1FMAI44 bus1=BUSLVMAI1540.1 kV=0.12 model=1 conn=wye kW=1.0 kvar=0.1 status=variable phases=1 daily=curve177_00R !kWh=177 class=R !Group=47
new load.n_1FMAI45 bus1=BUSLVMAI8309.1.2 kV=0.208 model=1 conn=wye kW=1.0 kvar=0.1 status=variable phases=1 daily=curve63_00R !kWh=63 class=R !Group=214
new load.n_1FMAI46 bus1=BUSLVMAI8316.1.2 kV=0.208 model=1 conn=wye kW=1.0 kvar=0.1 status=variable phases=1 daily=curve277_25R !kWh=277 class=R !Group=221
new load.n_1FMAI47 bus1=BUSLVMAI8374.1.2 kV=0.208 model=1 conn=wye kW=1.0 kvar=0.1 status=variable phases=1 daily=curve49_00R !kWh=50 class=R !Group=212
new load.n_1FMAI48 bus1=BUSLVMAI8319.1.2 kV=0.208 model=1 conn=wye kW=1.0 kvar=0.1 status=variable phases=1 daily=curve241_72R !kWh=240 class=R !Group=215
new load.n_1FMAI49 bus1=BUSLVMAI1609.1.2 kV=0.208 model=1 conn=wye kW=1.0 kvar=0.1 status=variable phases=1 daily=curve230_00R !kWh=231 class=R !Group=47
new load.n_1FMAI50 bus1=BUSLVMAI1542.1 kV=0.12 model=1 conn=wye kW=1.0 kvar=0.1 status=variable phases=1 daily=curve132_00R !kWh=130 class=R !Group=46
new load.n_1FMAI51 bus1=BUSLVMAI1583.1 kV=0.12 model=1 conn=wye kW=1.0 kvar=0.1 status=variable phases=1 daily=curve198_33R !kWh=198 class=R !Group=46
new load.n_1FMAI52 bus1=BUSLVMAI1515.1 kV=0.12 model=1 conn=wye kW=1.0 kvar=0.1 status=variable phases=1 daily=curve207_00R !kWh=203 class=R !Group=47
new load.n_1FMAI53 bus1=BUSLVMAI8315.1.2 kV=0.208 model=1 conn=wye kW=1.0 kvar=0.1 status=variable phases=1 daily=curve258_75R !kWh=261 class=R !Group=214
new load.n_1FMAI54 bus1=BUSLVMAI8435.1.2 kV=0.208 model=1 conn=wye kW=1.0 kvar=0.1 status=variable phases=1 daily=curve194_00R !kWh=194 class=R !Group=214
new load.n_1FMAI55 bus1=BUSLVMAI1545.1.2 kV=0.208 model=1 conn=wye kW=1.0 kvar=0.1 status=variable phases=1 daily=curve294_98R !kWh=295 class=R !Group=44
new load.n_1FMAI56 bus1=BUSLVMAI8322.1.2 kV=0.208 model=1 conn=wye kW=1.0 kvar=0.1 status=variable phases=1 daily=curve355_34R !kWh=355 class=R !Group=42
new load.n_1FMAI57 bus1=BUSLVMAI8323.1.2 kV=0.208 model=1 conn=wye kW=1.0 kvar=0.3 status=variable phases=1 daily=curve1172_00C !kWh=1170 class=C !Group=224
new load.n_1FMAI58 bus1=BUSLVMAI1546.1.2 kV=0.208 model=1 conn=wye kW=1.0 kvar=0.1 status=variable phases=1 daily=curve219_48R !kWh=221 class=R !Group=48
new load.n_1FMAI59 bus1=BUSLVMAI8333.1.2 kV=0.208 model=1 conn=wye kW=1.0 kvar=0.1 status=variable phases=1 daily=curve9840_00R !kWh=9840 class=R !Group=224
new load.n_1FMAI60 bus1=BUSLVMAI8325.1.2 kV=0.208 model=1 conn=wye kW=1.0 kvar=0.1 status=variable phases=1 daily=curve287_43R !kWh=289 class=R !Group=219
new load.n_1FMAI61 bus1=BUSLVMAI8408.1.2 kV=0.208 model=1 conn=wye kW=1.0 kvar=0.1 status=variable phases=1 daily=curve556_00R !kWh=557 class=R !Group=222
new load.n_1FMAI62 bus1=BUSLVMAI1547.1 kV=0.12 model=1 conn=wye kW=1.0 kvar=0.3 status=variable phases=1 daily=curve104_00C !kWh=103 class=C !Group=43
new load.n_1FMAI63 bus1=BUSLVMAI8360.1.2 kV=0.208 model=1 conn=wye kW=1.0 kvar=0.1 status=variable phases=1 daily=curve139_43R !kWh=139 class=R !Group=213
new load.n_1FMAI64 bus1=BUSLVMAI8412.1.2 kV=0.208 model=1 conn=wye kW=1.0 kvar=0.1 status=variable phases=1 daily=curve320_19R !kWh=318 class=R !Group=217
new load.n_1FMAI65 bus1=BUSLVMAI8317.1.2 kV=0.208 model=1 conn=wye kW=1.0 kvar=0.1 status=variable phases=1 daily=curve132_00R !kWh=131 class=R !Group=212
new load.n_1FMAI66 bus1=BUSLVMAI8318.1.2 kV=0.208 model=1 conn=wye kW=1.0 kvar=0.1 status=variable phases=1 daily=curve327_93R !kWh=328 class=R !Group=215
new load.n_1FMAI67 bus1=BUSLVMAI1554.1.2 kV=0.208 model=1 conn=wye kW=1.0 kvar=0.3 status=variable phases=1 daily=curve104_00C !kWh=104 class=C !Group=44
new load.n_1FMAI68 bus1=BUSLVMAI8312.1.2 kV=0.208 model=1 conn=wye kW=1.0 kvar=0.1 status=variable phases=1 daily=curve5_00R !kWh=5 class=R !Group=213
new load.n_1FMAI69 bus1=BUSLVMAI8336.1.2 kV=0.208 model=1 conn=wye kW=1.0 kvar=0.1 status=variable phases=1 daily=curve269_45R !kWh=271 class=R !Group=215
new load.n_1FMAI70 bus1=BUSLVMAI8334.1.2 kV=0.208 model=1 conn=wye kW=1.0 kvar=0.1 status=variable phases=1 daily=curve567_55R !kWh=565 class=R !Group=223
new load.n_1FMAI71 bus1=BUSLVMAI1549.1.2 kV=0.208 model=1 conn=wye kW=1.0 kvar=0.1 status=variable phases=1 daily=curve632_63R !kWh=631 class=R !Group=48
new load.n_1FMAI72 bus1=BUSLVMAI8350.1.2 kV=0.208 model=1 conn=wye kW=1.0 kvar=0.1 status=variable phases=1 daily=curve264_00R !kWh=264 class=R !Group=218
new load.n_1FMAI73 bus1=BUSLVMAI8337.1.2 kV=0.208 model=1 conn=wye kW=1.0 kvar=0.1 status=variable phases=1 daily=curve230_00R !kWh=231 class=R !Group=42
new load.n_1FMAI74 bus1=BUSLVMAI1550.1.2 kV=0.208 model=1 conn=wye kW=1.0 kvar=0.1 status=variable phases=1 daily=curve355_34R !kWh=357 class=R !Group=47
new load.n_1FMAI75 bus1=BUSLVMAI1551.1.2 kV=0.208 model=1 conn=wye kW=1.0 kvar=0.1 status=variable phases=1 daily=curve112_00R !kWh=112 class=R !Group=46
new load.n_1FMAI76 bus1=BUSLVMAI8338.1.2 kV=0.208 model=1 conn=wye kW=1.0 kvar=0.1 status=variable phases=1 daily=curve132_00R !kWh=134 class=R !Group=221
new load.n_1FMAI77 bus1=BUSLVMAI8349.1.2 kV=0.208 model=1 conn=wye kW=1.0 kvar=0.1 status=variable phases=1 daily=curve91_00R !kWh=91 class=R !Group=42
new load.n_1FMAI78 bus1=BUSLVMAI1577.1.2 kV=0.208 model=1 conn=wye kW=1.0 kvar=0.3 status=variable phases=1 daily=curve384_16C !kWh=388 class=C !Group=48
new load.n_1FMAI79 bus1=BUSLVMAI8341.1.2 kV=0.208 model=1 conn=wye kW=1.0 kvar=0.1 status=variable phases=1 daily=curve567_55R !kWh=569 class=R !Group=222
new load.n_1FMAI80 bus1=BUSLVMAI8434.1.2 kV=0.208 model=1 conn=wye kW=1.0 kvar=0.1 status=variable phases=1 daily=curve167_00R !kWh=168 class=R !Group=213
new load.n_1FMAI81 bus1=BUSLVMAI8405.1.2 kV=0.208 model=1 conn=wye kW=1.0 kvar=0.1 status=variable phases=1 daily=curve556_00R !kWh=551 class=R !Group=223
new load.n_1FMAI82 bus1=BUSLVMAI1553.1.2 kV=0.208 model=1 conn=wye kW=1.0 kvar=0.1 status=variable phases=1 daily=curve132_00R !kWh=132 class=R !Group=47
new load.n_1FMAI83 bus1=BUSLVMAI8345.1.2 kV=0.208 model=1 conn=wye kW=1.0 kvar=0.1 status=variable phases=1 daily=curve47_00R !kWh=47 class=R !Group=213
new load.n_1FMAI84 bus1=BUSLVMAI8313.1.2 kV=0.208 model=1 conn=wye kW=1.0 kvar=0.1 status=variable phases=1 daily=curve124_00R !kWh=125 class=R !Group=212
new load.n_1FMAI85 bus1=BUSLVMAI8400.1.2 kV=0.208 model=1 conn=wye kW=1.0 kvar=0.1 status=variable phases=1 daily=curve353_33R !kWh=354 class=R !Group=219
new load.n_1FMAI86 bus1=BUSLVMAI8339.1.2 kV=0.208 model=1 conn=wye kW=1.0 kvar=0.1 status=variable phases=1 daily=curve264_00R !kWh=264 class=R !Group=42
new load.n_1FMAI87 bus1=BUSLVMAI8387.1.2 kV=0.208 model=1 conn=wye kW=1.0 kvar=0.1 status=variable phases=1 daily=curve597_00R !kWh=596 class=R !Group=221
new load.n_1FMAI88 bus1=BUSLVMAI1564.1.2 kV=0.208 model=1 conn=wye kW=1.0 kvar=0.1 status=variable phases=1 daily=curve180_93R !kWh=181 class=R !Group=44
new load.n_1FMAI89 bus1=BUSLVMAI8335.1.2 kV=0.208 model=1 conn=wye kW=1.0 kvar=0.1 status=variable phases=1 daily=curve250_41R !kWh=251 class=R !Group=218
new load.n_1FMAI90 bus1=BUSLVMAI8344.1.2 kV=0.208 model=1 conn=wye kW=1.0 kvar=0.1 status=variable phases=1 daily=curve434_00R !kWh=435 class=R !Group=42
new load.n_1FMAI91 bus1=BUSLVMAI1556.1.2 kV=0.208 model=1 conn=wye kW=1.0 kvar=0.3 status=variable phases=1 daily=curve1199_00C !kWh=1201 class=C !Group=48
new load.n_1FMAI92 bus1=BUSLVMAI1557.1.2 kV=0.208 model=1 conn=wye kW=1.0 kvar=0.1 status=variable phases=1 daily=curve79_00R !kWh=80 class=R !Group=44
new load.n_1FMAI93 bus1=BUSLVMAI8354.1.2 kV=0.208 model=1 conn=wye kW=1.0 kvar=0.1 status=variable phases=1 daily=curve225_00R !kWh=226 class=R !Group=219
new load.n_1FMAI94 bus1=BUSLVMAI8416.1.2 kV=0.208 model=1 conn=wye kW=1.0 kvar=0.1 status=variable phases=1 daily=curve567_55R !kWh=563 class=R !Group=223
new load.n_1FMAI95 bus1=BUSLVMAI1516.1.2 kV=0.208 model=1 conn=wye kW=1.0 kvar=0.1 status=variable phases=1 daily=curve76_00R !kWh=77 class=R !Group=47
new load.n_1FMAI96 bus1=BUSLVMAI8371.1.2 kV=0.208 model=1 conn=wye kW=1.0 kvar=0.1 status=variable phases=1 daily=curve230_00R !kWh=232 class=R !Group=223
new load.n_1FMAI97 bus1=BUSLVMAI1559.1.2 kV=0.208 model=1 conn=wye kW=1.0 kvar=0.3 status=variable phases=1 daily=curve3425_00C !kWh=3425 class=C !Group=41
new load.n_1FMAI98 bus1=BUSLVMAI1560.1.2 kV=0.208 model=1 conn=wye kW=1.0 kvar=0.1 status=variable phases=1 daily=curve225_00R !kWh=226 class=R !Group=46
new load.n_1FMAI99 bus1=BUSLVMAI8423.1.2 kV=0.208 model=1 conn=wye kW=1.0 kvar=0.1 status=variable phases=1 daily=curve401_82R !kWh=397 class=R !Group=223
new load.n_1FMAI100 bus1=BUSLVMAI8437.1.2 kV=0.208 model=1 conn=wye kW=1.0 kvar=0.1 status=variable phases=1 daily=curve230_00R !kWh=230 class=R !Group=213
new load.n_1FMAI101 bus1=BUSLVMAI8421.1.2 kV=0.208 model=1 conn=wye kW=1.0 kvar=0.1 status=variable phases=1 daily=curve3_00R !kWh=3 class=R !Group=222
new load.n_1FMAI102 bus1=BUSLVMAI8332.1.2 kV=0.208 model=1 conn=wye kW=1.0 kvar=0.1 status=variable phases=1 daily=curve162_00R !kWh=164 class=R !Group=213
new load.n_1FMAI103 bus1=BUSLVMAI1593.1.2 kV=0.208 model=1 conn=wye kW=1.0 kvar=0.1 status=variable phases=1 daily=curve230_00R !kWh=231 class=R !Group=48
new load.n_1FMAI104 bus1=BUSLVMAI8342.1.2 kV=0.208 model=1 conn=wye kW=1.0 kvar=0.1 status=variable phases=1 daily=curve107_00R !kWh=108 class=R !Group=213
new load.n_1FMAI105 bus1=BUSLVMAI8395.1.2 kV=0.208 model=1 conn=wye kW=1.0 kvar=0.1 status=variable phases=1 daily=curve211_74R !kWh=213 class=R !Group=217
new load.n_1FMAI106 bus1=BUSLVMAI8363.1.2 kV=0.208 model=1 conn=wye kW=1.0 kvar=0.1 status=variable phases=1 daily=curve495_60R !kWh=499 class=R !Group=42
new load.n_1FMAI107 bus1=BUSLVMAI1562.1.2 kV=0.208 model=1 conn=wye kW=1.0 kvar=0.3 status=variable phases=1 daily=curve75_00C !kWh=74 class=C !Group=47
new load.n_1FMAI108 bus1=BUSLVMAI8414.1.2 kV=0.208 model=1 conn=wye kW=1.0 kvar=0.1 status=variable phases=1 daily=curve488_08R !kWh=490 class=R !Group=222
new load.n_1FMAI109 bus1=BUSLVMAI8311.1.2 kV=0.208 model=1 conn=wye kW=1.0 kvar=0.1 status=variable phases=1 daily=curve304_21R !kWh=308 class=R !Group=214
new load.n_1FMAI110 bus1=BUSLVMAI8436.1.2 kV=0.208 model=1 conn=wye kW=1.0 kvar=0.1 status=variable phases=1 daily=curve95_00R !kWh=95 class=R !Group=213
new load.n_1FMAI111 bus1=BUSLVMAI1548.1.2 kV=0.208 model=1 conn=wye kW=1.0 kvar=0.3 status=variable phases=1 daily=curve185_00C !kWh=186 class=C !Group=44
new load.n_1FMAI112 bus1=BUSLVMAI1533.1.2 kV=0.208 model=1 conn=wye kW=1.0 kvar=0.1 status=variable phases=1 daily=curve413_00R !kWh=410 class=R !Group=42
new load.n_1FMAI113 bus1=BUSLVMAI8328.1.2 kV=0.208 model=1 conn=wye kW=1.0 kvar=0.1 status=variable phases=1 daily=curve124_00R !kWh=123 class=R !Group=213
new load.n_1FMAI114 bus1=BUSLVMAI8321.1.2 kV=0.208 model=1 conn=wye kW=1.0 kvar=0.1 status=variable phases=1 daily=curve107_00R !kWh=106 class=R !Group=214
new load.n_1FMAI115 bus1=BUSLVMAI1566.1 kV=0.12 model=1 conn=wye kW=1.0 kvar=0.1 status=variable phases=1 daily=curve66_00R !kWh=66 class=R !Group=47
new load.n_1FMAI116 bus1=BUSLVMAI1567.1 kV=0.12 model=1 conn=wye kW=1.0 kvar=0.3 status=variable phases=1 daily=curve505_37C !kWh=500 class=C !Group=46
new load.n_1FMAI117 bus1=BUSLVMAI1569.1.2 kV=0.208 model=1 conn=wye kW=1.0 kvar=0.1 status=variable phases=1 daily=curve327_93R !kWh=327 class=R !Group=47
new load.n_1FMAI118 bus1=BUSLVMAI8377.1.2 kV=0.208 model=1 conn=wye kW=1.0 kvar=0.1 status=variable phases=1 daily=curve434_00R !kWh=435 class=R !Group=222
new load.n_1FMAI119 bus1=BUSLVMAI8326.1.2 kV=0.208 model=1 conn=wye kW=1.0 kvar=0.1 status=variable phases=1 daily=curve207_00R !kWh=205 class=R !Group=222
new load.n_1FMAI120 bus1=BUSLVMAI8406.1.2 kV=0.208 model=1 conn=wye kW=1.0 kvar=0.1 status=variable phases=1 daily=curve332_00R !kWh=332 class=R !Group=223
new load.n_1FMAI121 bus1=BUSLVMAI1536.1.2 kV=0.208 model=1 conn=wye kW=1.0 kvar=0.1 status=variable phases=1 daily=curve417_50R !kWh=418 class=R !Group=47
new load.n_1FMAI122 bus1=BUSLVMAI1570.1.2 kV=0.208 model=1 conn=wye kW=1.0 kvar=0.3 status=variable phases=1 daily=curve404_00C !kWh=400 class=C !Group=41
new load.n_1FMAI123 bus1=BUSLVMAI1571.1 kV=0.12 model=1 conn=wye kW=1.0 kvar=0.3 status=variable phases=1 daily=curve50_00C !kWh=50 class=C !Group=47
new load.n_1FMAI124 bus1=BUSLVMAI8381.1.2 kV=0.208 model=1 conn=wye kW=1.0 kvar=0.1 status=variable phases=1 daily=curve428_16R !kWh=428 class=R !Group=222
new load.n_1FMAI125 bus1=BUSLVMAI1574.1 kV=0.12 model=1 conn=wye kW=1.0 kvar=0.1 status=variable phases=1 daily=curve69_00R !kWh=70 class=R !Group=44
new load.n_1FMAI126 bus1=BUSLVMAI8329.1.2 kV=0.208 model=1 conn=wye kW=1.0 kvar=0.1 status=variable phases=1 daily=curve10_00R !kWh=10 class=R !Group=217
new load.n_1FMAI127 bus1=BUSLVMAI1597.1.2 kV=0.208 model=1 conn=wye kW=1.0 kvar=0.1 status=variable phases=1 daily=curve325_00R !kWh=324 class=R !Group=44
new load.n_1FMAI128 bus1=BUSLVMAI1604.1.2 kV=0.208 model=1 conn=wye kW=1.0 kvar=0.3 status=variable phases=1 daily=curve10_00C !kWh=10 class=C !Group=44
new load.n_1FMAI129 bus1=BUSLVMAI8384.1.2 kV=0.208 model=1 conn=wye kW=1.0 kvar=0.1 status=variable phases=1 daily=curve283_00R !kWh=282 class=R !Group=220
new load.n_1FMAI130 bus1=BUSLVMAI8386.1.2 kV=0.208 model=1 conn=wye kW=1.0 kvar=0.1 status=variable phases=1 daily=curve447_58R !kWh=452 class=R !Group=221
new load.n_1FMAI131 bus1=BUSLVMAI1522.1.2 kV=0.208 model=1 conn=wye kW=1.0 kvar=0.1 status=variable phases=1 daily=curve66_00R !kWh=67 class=R !Group=48
new load.n_1FMAI132 bus1=BUSLVMAI1610.1.2 kV=0.208 model=1 conn=wye kW=1.0 kvar=0.1 status=variable phases=1 daily=curve269_45R !kWh=271 class=R !Group=44
new load.n_1FMAI133 bus1=BUSLVMAI1552.1.2 kV=0.208 model=1 conn=wye kW=1.0 kvar=0.3 status=variable phases=1 daily=curve287_43C !kWh=286 class=C !Group=48
new load.n_1FMAI134 bus1=BUSLVMAI1578.1.2 kV=0.208 model=1 conn=wye kW=1.0 kvar=0.1 status=variable phases=1 daily=curve1801_00R !kWh=1781 class=R !Group=43
new load.n_1FMAI135 bus1=BUSLVMAI1586.1 kV=0.12 model=1 conn=wye kW=1.0 kvar=0.1 status=variable phases=1 daily=curve172_00R !kWh=174 class=R !Group=44
new load.n_1FMAI136 bus1=BUSLVMAI1580.1.2 kV=0.208 model=1 conn=wye kW=1.0 kvar=0.1 status=variable phases=1 daily=curve167_00R !kWh=169 class=R !Group=47
new load.n_1FMAI137 bus1=BUSLVMAI1581.1.2 kV=0.208 model=1 conn=wye kW=1.0 kvar=0.3 status=variable phases=1 daily=curve167_00C !kWh=167 class=C !Group=48
new load.n_1FMAI138 bus1=BUSLVMAI1582.1 kV=0.12 model=1 conn=wye kW=1.0 kvar=0.1 status=variable phases=1 daily=curve30_00R !kWh=30 class=R !Group=47
new load.n_1FMAI139 bus1=BUSLVMAI1543.1.2 kV=0.208 model=1 conn=wye kW=1.0 kvar=0.1 status=variable phases=1 daily=curve230_00R !kWh=230 class=R !Group=46
new load.n_1FMAI140 bus1=BUSLVMAI1573.1 kV=0.12 model=1 conn=wye kW=1.0 kvar=0.1 status=variable phases=1 daily=curve118_00R !kWh=119 class=R !Group=44
new load.n_1FMAI141 bus1=BUSLVMAI8388.1.2 kV=0.208 model=1 conn=wye kW=1.0 kvar=0.1 status=variable phases=1 daily=curve275_00R !kWh=274 class=R !Group=219
new load.n_1FMAI142 bus1=BUSLVMAI8431.1.2 kV=0.208 model=1 conn=wye kW=1.0 kvar=0.1 status=variable phases=1 daily=curve519_00R !kWh=520 class=R !Group=217
new load.n_1FMAI143 bus1=BUSLVMAI1537.1.2 kV=0.208 model=1 conn=wye kW=1.0 kvar=0.1 status=variable phases=1 daily=curve115_00R !kWh=115 class=R !Group=42
new load.n_1FMAI144 bus1=BUSLVMAI8391.1.2 kV=0.208 model=1 conn=wye kW=1.0 kvar=0.1 status=variable phases=1 daily=curve369_00R !kWh=371 class=R !Group=216
new load.n_1FMAI145 bus1=BUSLVMAI8392.1.2 kV=0.208 model=1 conn=wye kW=1.0 kvar=0.1 status=variable phases=1 daily=curve136_00R !kWh=135 class=R !Group=216
new load.n_1FMAI146 bus1=BUSLVMAI8390.1.2 kV=0.208 model=1 conn=wye kW=1.0 kvar=0.1 status=variable phases=1 daily=curve364_33R !kWh=364 class=R !Group=216
new load.n_1FMAI147 bus1=BUSLVMAI8389.1.2 kV=0.208 model=1 conn=wye kW=1.0 kvar=0.1 status=variable phases=1 daily=curve304_21R !kWh=306 class=R !Group=217
new load.n_1FMAI148 bus1=BUSLVMAI1584.1 kV=0.12 model=1 conn=wye kW=1.0 kvar=0.1 status=variable phases=1 daily=curve188_00R !kWh=189 class=R !Group=44
new load.n_1FMAI149 bus1=BUSLVMAI8396.1.2 kV=0.208 model=1 conn=wye kW=1.0 kvar=0.1 status=variable phases=1 daily=curve198_33R !kWh=202 class=R !Group=219
new load.n_1FMAI150 bus1=BUSLVMAI8398.1.2 kV=0.208 model=1 conn=wye kW=1.0 kvar=0.1 status=variable phases=1 daily=curve180_93R !kWh=179 class=R !Group=217
new load.n_1FMAI151 bus1=BUSLVMAI8348.1.2 kV=0.208 model=1 conn=wye kW=1.0 kvar=0.1 status=variable phases=1 daily=curve488_08R !kWh=490 class=R !Group=219
new load.n_1FMAI152 bus1=BUSLVMAI1587.1.2 kV=0.208 model=1 conn=wye kW=1.0 kvar=0.3 status=variable phases=1 daily=curve1199_00C !kWh=1192 class=C !Group=45
new load.n_1FMAI153 bus1=BUSLVMAI8401.1.2 kV=0.208 model=1 conn=wye kW=1.0 kvar=0.3 status=variable phases=1 daily=curve163_00C !kWh=163 class=C !Group=224
new load.n_1FMAI154 bus1=BUSLVMAI8397.1.2 kV=0.208 model=1 conn=wye kW=1.0 kvar=0.1 status=variable phases=1 daily=curve136_00R !kWh=135 class=R !Group=219
new load.n_1FMAI155 bus1=BUSLVMAI8385.1.2 kV=0.208 model=1 conn=wye kW=1.0 kvar=0.1 status=variable phases=1 daily=curve89_00R !kWh=89 class=R !Group=221
new load.n_1FMAI156 bus1=BUSLVMAI1588.1.2 kV=0.208 model=1 conn=wye kW=1.0 kvar=0.3 status=variable phases=1 daily=curve338_53C !kWh=340 class=C !Group=44
new load.n_1FMAI157 bus1=BUSLVMAI8817.1.2 kV=0.208 model=1 conn=wye kW=1.0 kvar=0.1 status=variable phases=1 daily=curve401_82R !kWh=401 class=R !Group=254
new load.n_1FMAI158 bus1=BUSLVMAI8429.1.2 kV=0.208 model=1 conn=wye kW=1.0 kvar=0.1 status=variable phases=1 daily=curve582_00R !kWh=583 class=R !Group=223
new load.n_1FMAI159 bus1=BUSLVMAI1589.1.2 kV=0.208 model=1 conn=wye kW=1.0 kvar=0.1 status=variable phases=1 daily=curve434_00R !kWh=432 class=R !Group=48
new load.n_1FMAI160 bus1=BUSLVMAI8409.1.2 kV=0.208 model=1 conn=wye kW=1.0 kvar=0.1 status=variable phases=1 daily=curve95_00R !kWh=95 class=R !Group=222
new load.n_1FMAI161 bus1=BUSLVMAI8417.1.2 kV=0.208 model=1 conn=wye kW=1.0 kvar=0.1 status=variable phases=1 daily=curve115_00R !kWh=115 class=R !Group=222
new load.n_1FMAI162 bus1=BUSLVMAI8380.1.2 kV=0.208 model=1 conn=wye kW=1.0 kvar=0.1 status=variable phases=1 daily=curve434_00R !kWh=436 class=R !Group=223
new load.n_1FMAI163 bus1=BUSLVMAI8364.1.2 kV=0.208 model=1 conn=wye kW=1.0 kvar=0.1 status=variable phases=1 daily=curve434_00R !kWh=435 class=R !Group=217
new load.n_1FMAI164 bus1=BUSLVMAI8367.1.2 kV=0.208 model=1 conn=wye kW=1.0 kvar=0.1 status=variable phases=1 daily=curve968_00R !kWh=985 class=R !Group=222
new load.n_1FMAI165 bus1=BUSLVMAI1592.1 kV=0.12 model=1 conn=wye kW=1.0 kvar=0.1 status=variable phases=1 daily=curve107_00R !kWh=109 class=R !Group=47
new load.n_1FMAI166 bus1=BUSLVMAI1513.1 kV=0.12 model=1 conn=wye kW=1.0 kvar=0.1 status=variable phases=1 daily=curve79_00R !kWh=79 class=R !Group=47
new load.n_1FMAI167 bus1=BUSLVMAI8415.1.2 kV=0.208 model=1 conn=wye kW=1.0 kvar=0.1 status=variable phases=1 daily=curve625_00R !kWh=623 class=R !Group=219
new load.n_1FMAI168 bus1=BUSLVMAI8355.1.2 kV=0.208 model=1 conn=wye kW=1.0 kvar=0.1 status=variable phases=1 daily=curve390_02R !kWh=389 class=R !Group=223
new load.n_1FMAI169 bus1=BUSLVMAI8424.1.2 kV=0.208 model=1 conn=wye kW=1.0 kvar=0.1 status=variable phases=1 daily=curve610_00R !kWh=609 class=R !Group=222
new load.n_1FMAI170 bus1=BUSLVMAI8307.1.2 kV=0.208 model=1 conn=wye kW=1.0 kvar=0.1 status=variable phases=1 daily=curve198_33R !kWh=198 class=R !Group=220
new load.n_1FMAI171 bus1=BUSLVMAI1590.1 kV=0.12 model=1 conn=wye kW=1.0 kvar=0.1 status=variable phases=1 daily=curve207_00R !kWh=203 class=R !Group=47
new load.n_1FMAI172 bus1=BUSLVMAI1561.1 kV=0.12 model=1 conn=wye kW=1.0 kvar=0.1 status=variable phases=1 daily=curve61_00R !kWh=60 class=R !Group=48
new load.n_1FMAI173 bus1=BUSLVMAI8410.1.2 kV=0.208 model=1 conn=wye kW=1.0 kvar=0.1 status=variable phases=1 daily=curve760_00R !kWh=761 class=R !Group=222
new load.n_1FMAI174 bus1=BUSLVMAI1594.1 kV=0.12 model=1 conn=wye kW=1.0 kvar=0.1 status=variable phases=1 daily=curve162_00R !kWh=162 class=R !Group=46
new load.n_1FMAI175 bus1=BUSLVMAI1595.1 kV=0.12 model=1 conn=wye kW=1.0 kvar=0.1 status=variable phases=1 daily=curve146_00R !kWh=145 class=R !Group=47
new load.n_1FMAI176 bus1=BUSLVMAI8422.1.2 kV=0.208 model=1 conn=wye kW=1.0 kvar=0.1 status=variable phases=1 daily=curve1032_00R !kWh=1039 class=R !Group=223
new load.n_1FMAI177 bus1=BUSLVMAI8411.1.2 kV=0.208 model=1 conn=wye kW=1.0 kvar=0.1 status=variable phases=1 daily=curve597_00R !kWh=594 class=R !Group=223
new load.n_1FMAI178 bus1=BUSLVMAI1596.1 kV=0.12 model=1 conn=wye kW=1.0 kvar=0.1 status=variable phases=1 daily=curve124_00R !kWh=125 class=R !Group=44
new load.n_1FMAI179 bus1=BUSLVMAI8359.1.2 kV=0.208 model=1 conn=wye kW=1.0 kvar=0.1 status=variable phases=1 daily=curve445_44R !kWh=440 class=R !Group=222
new load.n_1FMAI180 bus1=BUSLVMAI1579.1 kV=0.12 model=1 conn=wye kW=1.0 kvar=0.1 status=variable phases=1 daily=curve302_51R !kWh=303 class=R !Group=44
new load.n_1FMAI181 bus1=BUSLVMAI8430.1.2 kV=0.208 model=1 conn=wye kW=1.0 kvar=0.1 status=variable phases=1 daily=curve127_00R !kWh=127 class=R !Group=223
new load.n_1FMAI182 bus1=BUSLVMAI1606.1.2 kV=0.208 model=1 conn=wye kW=1.0 kvar=0.1 status=variable phases=1 daily=curve103_00R !kWh=101 class=R !Group=47
new load.n_1FMAI183 bus1=BUSLVMAI8310.1.2 kV=0.208 model=1 conn=wye kW=1.0 kvar=0.1 status=variable phases=1 daily=curve230_00R !kWh=232 class=R !Group=213
new load.n_1FMAI184 bus1=BUSLVMAI1510.1.2 kV=0.208 model=1 conn=wye kW=1.0 kvar=0.1 status=variable phases=1 daily=curve721_00R !kWh=710 class=R !Group=47
new load.n_1FMAI185 bus1=BUSLVMAI8426.1.2 kV=0.208 model=1 conn=wye kW=1.0 kvar=0.1 status=variable phases=1 daily=curve677_00R !kWh=673 class=R !Group=223
new load.n_1FMAI186 bus1=BUSLVMAI1600.1.2 kV=0.208 model=1 conn=wye kW=1.0 kvar=0.1 status=variable phases=1 daily=curve150_00R !kWh=151 class=R !Group=47
new load.n_1FMAI187 bus1=BUSLVMAI8357.1.2 kV=0.208 model=1 conn=wye kW=1.0 kvar=0.1 status=variable phases=1 daily=curve250_41R !kWh=250 class=R !Group=223
new load.n_1FMAI188 bus1=BUSLVMAI1601.1.2 kV=0.208 model=1 conn=wye kW=1.0 kvar=0.1 status=variable phases=1 daily=curve136_00R !kWh=136 class=R !Group=41
new load.n_1FMAI189 bus1=BUSLVMAI1602.1.2 kV=0.208 model=1 conn=wye kW=1.0 kvar=0.1 status=variable phases=1 daily=curve225_00R !kWh=224 class=R !Group=48
new load.n_1FMAI190 bus1=BUSLVMAI1603.1.2 kV=0.208 model=1 conn=wye kW=1.0 kvar=0.3 status=variable phases=1 daily=curve61_00C !kWh=61 class=C !Group=44
new load.n_1FMAI191 bus1=BUSLVMAI8383.1.2 kV=0.208 model=1 conn=wye kW=1.0 kvar=0.1 status=variable phases=1 daily=curve167_00R !kWh=165 class=R !Group=217
new load.n_1FMAI192 bus1=BUSLVMAI1572.1 kV=0.12 model=1 conn=wye kW=1.0 kvar=0.3 status=variable phases=1 daily=curve107_00C !kWh=106 class=C !Group=44
new load.n_1FMAI193 bus1=BUSLVMAI1519.1.2 kV=0.208 model=1 conn=wye kW=1.0 kvar=0.3 status=variable phases=1 daily=curve384_16C !kWh=382 class=C !Group=47
new load.n_1FMAI194 bus1=BUSLVMAI1598.1 kV=0.12 model=1 conn=wye kW=1.0 kvar=0.3 status=variable phases=1 daily=curve264_15C !kWh=264 class=C !Group=47