!UNIT
new transformer.HVMV buses=[Sourcebus.1.2.3 BUSMVMAI1.1.2.3] phases=3 windings=2 conns=[delta wye] kVs=[69 12.8] kVAs=[30000.0 30000.0] xhl=10 %loadloss=0 %noloadloss=0 wdg=1 numtaps=33 tap=1 maxtap=1.05 mintap=0.85 normhkva=30000 !isc1p=10.5 isc3p=10

New regcontrol.HVMV transformer=HVMV vreg=122 winding=2 band=2 PTratio=60 Delay=90 tapdelay=30 