New Loadshape.EV_-2 npts=96 mInterval=15 mult=(file=C:/Users/bjza0/Documents/Proyectos_actuales/ves_baterias_digitalizacion/FLX/DSS/profiles/EV_profiles.csv, col=-2, header=no) useactual=no
New Loadshape.EV_-4 npts=96 mInterval=15 mult=(file=C:/Users/bjza0/Documents/Proyectos_actuales/ves_baterias_digitalizacion/FLX/DSS/profiles/EV_profiles.csv, col=-4, header=no) useactual=no
New Loadshape.EV_-8 npts=96 mInterval=15 mult=(file=C:/Users/bjza0/Documents/Proyectos_actuales/ves_baterias_digitalizacion/FLX/DSS/profiles/EV_profiles.csv, col=-8, header=no) useactual=no
New Loadshape.EV_-16 npts=96 mInterval=15 mult=(file=C:/Users/bjza0/Documents/Proyectos_actuales/ves_baterias_digitalizacion/FLX/DSS/profiles/EV_profiles.csv, col=-16, header=no) useactual=no
New Loadshape.EV_-32 npts=96 mInterval=15 mult=(file=C:/Users/bjza0/Documents/Proyectos_actuales/ves_baterias_digitalizacion/FLX/DSS/profiles/EV_profiles.csv, col=-32, header=no) useactual=no
New Loadshape.EV_-64 npts=96 mInterval=15 mult=(file=C:/Users/bjza0/Documents/Proyectos_actuales/ves_baterias_digitalizacion/FLX/DSS/profiles/EV_profiles.csv, col=-64, header=no) useactual=no
New Loadshape.EV_-128 npts=96 mInterval=15 mult=(file=C:/Users/bjza0/Documents/Proyectos_actuales/ves_baterias_digitalizacion/FLX/DSS/profiles/EV_profiles.csv, col=-128, header=no) useactual=no
New Loadshape.EV_-256 npts=96 mInterval=15 mult=(file=C:/Users/bjza0/Documents/Proyectos_actuales/ves_baterias_digitalizacion/FLX/DSS/profiles/EV_profiles.csv, col=-256, header=no) useactual=no
New Loadshape.EV_-512 npts=96 mInterval=15 mult=(file=C:/Users/bjza0/Documents/Proyectos_actuales/ves_baterias_digitalizacion/FLX/DSS/profiles/EV_profiles.csv, col=-512, header=no) useactual=no
New Loadshape.EV_-1024 npts=96 mInterval=15 mult=(file=C:/Users/bjza0/Documents/Proyectos_actuales/ves_baterias_digitalizacion/FLX/DSS/profiles/EV_profiles.csv, col=-1024, header=no) useactual=no
New Loadshape.EV_-2048 npts=96 mInterval=15 mult=(file=C:/Users/bjza0/Documents/Proyectos_actuales/ves_baterias_digitalizacion/FLX/DSS/profiles/EV_profiles.csv, col=-2048, header=no) useactual=no
New Loadshape.EV_-4096 npts=96 mInterval=15 mult=(file=C:/Users/bjza0/Documents/Proyectos_actuales/ves_baterias_digitalizacion/FLX/DSS/profiles/EV_profiles.csv, col=-4096, header=no) useactual=no
New Loadshape.EV_-8192 npts=96 mInterval=15 mult=(file=C:/Users/bjza0/Documents/Proyectos_actuales/ves_baterias_digitalizacion/FLX/DSS/profiles/EV_profiles.csv, col=-8192, header=no) useactual=no
New Loadshape.EV_-16384 npts=96 mInterval=15 mult=(file=C:/Users/bjza0/Documents/Proyectos_actuales/ves_baterias_digitalizacion/FLX/DSS/profiles/EV_profiles.csv, col=-16384, header=no) useactual=no
New Loadshape.EV_-32768 npts=96 mInterval=15 mult=(file=C:/Users/bjza0/Documents/Proyectos_actuales/ves_baterias_digitalizacion/FLX/DSS/profiles/EV_profiles.csv, col=-32768, header=no) useactual=no
New Loadshape.EV_-65536 npts=96 mInterval=15 mult=(file=C:/Users/bjza0/Documents/Proyectos_actuales/ves_baterias_digitalizacion/FLX/DSS/profiles/EV_profiles.csv, col=-65536, header=no) useactual=no
New Loadshape.EV_-131072 npts=96 mInterval=15 mult=(file=C:/Users/bjza0/Documents/Proyectos_actuales/ves_baterias_digitalizacion/FLX/DSS/profiles/EV_profiles.csv, col=-131072, header=no) useactual=no
New Loadshape.EV_-262144 npts=96 mInterval=15 mult=(file=C:/Users/bjza0/Documents/Proyectos_actuales/ves_baterias_digitalizacion/FLX/DSS/profiles/EV_profiles.csv, col=-262144, header=no) useactual=no
New Loadshape.EV_-524288 npts=96 mInterval=15 mult=(file=C:/Users/bjza0/Documents/Proyectos_actuales/ves_baterias_digitalizacion/FLX/DSS/profiles/EV_profiles.csv, col=-524288, header=no) useactual=no
New Loadshape.EV_-1048576 npts=96 mInterval=15 mult=(file=C:/Users/bjza0/Documents/Proyectos_actuales/ves_baterias_digitalizacion/FLX/DSS/profiles/EV_profiles.csv, col=-1048576, header=no) useactual=no
New Loadshape.EV_-2097152 npts=96 mInterval=15 mult=(file=C:/Users/bjza0/Documents/Proyectos_actuales/ves_baterias_digitalizacion/FLX/DSS/profiles/EV_profiles.csv, col=-2097152, header=no) useactual=no
New Loadshape.EV_-4194304 npts=96 mInterval=15 mult=(file=C:/Users/bjza0/Documents/Proyectos_actuales/ves_baterias_digitalizacion/FLX/DSS/profiles/EV_profiles.csv, col=-4194304, header=no) useactual=no
New Loadshape.EV_-8388608 npts=96 mInterval=15 mult=(file=C:/Users/bjza0/Documents/Proyectos_actuales/ves_baterias_digitalizacion/FLX/DSS/profiles/EV_profiles.csv, col=-8388608, header=no) useactual=no
New Loadshape.EV_-16777216 npts=96 mInterval=15 mult=(file=C:/Users/bjza0/Documents/Proyectos_actuales/ves_baterias_digitalizacion/FLX/DSS/profiles/EV_profiles.csv, col=-16777216, header=no) useactual=no
New Loadshape.EV_-33554432 npts=96 mInterval=15 mult=(file=C:/Users/bjza0/Documents/Proyectos_actuales/ves_baterias_digitalizacion/FLX/DSS/profiles/EV_profiles.csv, col=-33554432, header=no) useactual=no
New Loadshape.EV_-67108864 npts=96 mInterval=15 mult=(file=C:/Users/bjza0/Documents/Proyectos_actuales/ves_baterias_digitalizacion/FLX/DSS/profiles/EV_profiles.csv, col=-67108864, header=no) useactual=no
New Loadshape.EV_-134217728 npts=96 mInterval=15 mult=(file=C:/Users/bjza0/Documents/Proyectos_actuales/ves_baterias_digitalizacion/FLX/DSS/profiles/EV_profiles.csv, col=-134217728, header=no) useactual=no
New Loadshape.EV_-268435456 npts=96 mInterval=15 mult=(file=C:/Users/bjza0/Documents/Proyectos_actuales/ves_baterias_digitalizacion/FLX/DSS/profiles/EV_profiles.csv, col=-268435456, header=no) useactual=no
New Loadshape.EV_-536870912 npts=96 mInterval=15 mult=(file=C:/Users/bjza0/Documents/Proyectos_actuales/ves_baterias_digitalizacion/FLX/DSS/profiles/EV_profiles.csv, col=-536870912, header=no) useactual=no
New Loadshape.EV_-1073741824 npts=96 mInterval=15 mult=(file=C:/Users/bjza0/Documents/Proyectos_actuales/ves_baterias_digitalizacion/FLX/DSS/profiles/EV_profiles.csv, col=-1073741824, header=no) useactual=no
New Loadshape.EV_-2147483648 npts=96 mInterval=15 mult=(file=C:/Users/bjza0/Documents/Proyectos_actuales/ves_baterias_digitalizacion/FLX/DSS/profiles/EV_profiles.csv, col=-2147483648, header=no) useactual=no
New Loadshape.EV_-4294967296 npts=96 mInterval=15 mult=(file=C:/Users/bjza0/Documents/Proyectos_actuales/ves_baterias_digitalizacion/FLX/DSS/profiles/EV_profiles.csv, col=-4294967296, header=no) useactual=no
New Loadshape.EV_-8589934592 npts=96 mInterval=15 mult=(file=C:/Users/bjza0/Documents/Proyectos_actuales/ves_baterias_digitalizacion/FLX/DSS/profiles/EV_profiles.csv, col=-8589934592, header=no) useactual=no
New Loadshape.EV_-17179869184 npts=96 mInterval=15 mult=(file=C:/Users/bjza0/Documents/Proyectos_actuales/ves_baterias_digitalizacion/FLX/DSS/profiles/EV_profiles.csv, col=-17179869184, header=no) useactual=no
New Loadshape.EV_-34359738368 npts=96 mInterval=15 mult=(file=C:/Users/bjza0/Documents/Proyectos_actuales/ves_baterias_digitalizacion/FLX/DSS/profiles/EV_profiles.csv, col=-34359738368, header=no) useactual=no
New Loadshape.EV_-68719476736 npts=96 mInterval=15 mult=(file=C:/Users/bjza0/Documents/Proyectos_actuales/ves_baterias_digitalizacion/FLX/DSS/profiles/EV_profiles.csv, col=-68719476736, header=no) useactual=no
New Loadshape.EV_-137438953472 npts=96 mInterval=15 mult=(file=C:/Users/bjza0/Documents/Proyectos_actuales/ves_baterias_digitalizacion/FLX/DSS/profiles/EV_profiles.csv, col=-137438953472, header=no) useactual=no
New Loadshape.EV_-274877906944 npts=96 mInterval=15 mult=(file=C:/Users/bjza0/Documents/Proyectos_actuales/ves_baterias_digitalizacion/FLX/DSS/profiles/EV_profiles.csv, col=-274877906944, header=no) useactual=no
New Loadshape.EV_-549755813888 npts=96 mInterval=15 mult=(file=C:/Users/bjza0/Documents/Proyectos_actuales/ves_baterias_digitalizacion/FLX/DSS/profiles/EV_profiles.csv, col=-549755813888, header=no) useactual=no
New Loadshape.EV_-1099511627776 npts=96 mInterval=15 mult=(file=C:/Users/bjza0/Documents/Proyectos_actuales/ves_baterias_digitalizacion/FLX/DSS/profiles/EV_profiles.csv, col=-1099511627776, header=no) useactual=no
New Loadshape.EV_-2199023255552 npts=96 mInterval=15 mult=(file=C:/Users/bjza0/Documents/Proyectos_actuales/ves_baterias_digitalizacion/FLX/DSS/profiles/EV_profiles.csv, col=-2199023255552, header=no) useactual=no
New Loadshape.EV_-4398046511104 npts=96 mInterval=15 mult=(file=C:/Users/bjza0/Documents/Proyectos_actuales/ves_baterias_digitalizacion/FLX/DSS/profiles/EV_profiles.csv, col=-4398046511104, header=no) useactual=no
New Loadshape.EV_-8796093022208 npts=96 mInterval=15 mult=(file=C:/Users/bjza0/Documents/Proyectos_actuales/ves_baterias_digitalizacion/FLX/DSS/profiles/EV_profiles.csv, col=-8796093022208, header=no) useactual=no
New Loadshape.EV_-17592186044416 npts=96 mInterval=15 mult=(file=C:/Users/bjza0/Documents/Proyectos_actuales/ves_baterias_digitalizacion/FLX/DSS/profiles/EV_profiles.csv, col=-17592186044416, header=no) useactual=no
New Loadshape.EV_-35184372088832 npts=96 mInterval=15 mult=(file=C:/Users/bjza0/Documents/Proyectos_actuales/ves_baterias_digitalizacion/FLX/DSS/profiles/EV_profiles.csv, col=-35184372088832, header=no) useactual=no
New Loadshape.EV_-70368744177664 npts=96 mInterval=15 mult=(file=C:/Users/bjza0/Documents/Proyectos_actuales/ves_baterias_digitalizacion/FLX/DSS/profiles/EV_profiles.csv, col=-70368744177664, header=no) useactual=no
