New Loadshape.EV_0 npts=96 mInterval=15 mult=(file=C:/Users/bjza0/Documents/Proyectos_actuales/ves_baterias_digitalizacion/FLX/DSS/profiles/EV_profiles.csv, col=0, header=no) useactual=no
New Loadshape.EV_1 npts=96 mInterval=15 mult=(file=C:/Users/bjza0/Documents/Proyectos_actuales/ves_baterias_digitalizacion/FLX/DSS/profiles/EV_profiles.csv, col=1, header=no) useactual=no
New Loadshape.EV_2 npts=96 mInterval=15 mult=(file=C:/Users/bjza0/Documents/Proyectos_actuales/ves_baterias_digitalizacion/FLX/DSS/profiles/EV_profiles.csv, col=2, header=no) useactual=no
New Loadshape.EV_3 npts=96 mInterval=15 mult=(file=C:/Users/bjza0/Documents/Proyectos_actuales/ves_baterias_digitalizacion/FLX/DSS/profiles/EV_profiles.csv, col=3, header=no) useactual=no
New Loadshape.EV_4 npts=96 mInterval=15 mult=(file=C:/Users/bjza0/Documents/Proyectos_actuales/ves_baterias_digitalizacion/FLX/DSS/profiles/EV_profiles.csv, col=4, header=no) useactual=no
New Loadshape.EV_5 npts=96 mInterval=15 mult=(file=C:/Users/bjza0/Documents/Proyectos_actuales/ves_baterias_digitalizacion/FLX/DSS/profiles/EV_profiles.csv, col=5, header=no) useactual=no
New Loadshape.EV_6 npts=96 mInterval=15 mult=(file=C:/Users/bjza0/Documents/Proyectos_actuales/ves_baterias_digitalizacion/FLX/DSS/profiles/EV_profiles.csv, col=6, header=no) useactual=no
New Loadshape.EV_7 npts=96 mInterval=15 mult=(file=C:/Users/bjza0/Documents/Proyectos_actuales/ves_baterias_digitalizacion/FLX/DSS/profiles/EV_profiles.csv, col=7, header=no) useactual=no
New Loadshape.EV_8 npts=96 mInterval=15 mult=(file=C:/Users/bjza0/Documents/Proyectos_actuales/ves_baterias_digitalizacion/FLX/DSS/profiles/EV_profiles.csv, col=8, header=no) useactual=no
New Loadshape.EV_9 npts=96 mInterval=15 mult=(file=C:/Users/bjza0/Documents/Proyectos_actuales/ves_baterias_digitalizacion/FLX/DSS/profiles/EV_profiles.csv, col=9, header=no) useactual=no
New Loadshape.EV_10 npts=96 mInterval=15 mult=(file=C:/Users/bjza0/Documents/Proyectos_actuales/ves_baterias_digitalizacion/FLX/DSS/profiles/EV_profiles.csv, col=10, header=no) useactual=no
New Loadshape.EV_11 npts=96 mInterval=15 mult=(file=C:/Users/bjza0/Documents/Proyectos_actuales/ves_baterias_digitalizacion/FLX/DSS/profiles/EV_profiles.csv, col=11, header=no) useactual=no
New Loadshape.EV_12 npts=96 mInterval=15 mult=(file=C:/Users/bjza0/Documents/Proyectos_actuales/ves_baterias_digitalizacion/FLX/DSS/profiles/EV_profiles.csv, col=12, header=no) useactual=no
New Loadshape.EV_13 npts=96 mInterval=15 mult=(file=C:/Users/bjza0/Documents/Proyectos_actuales/ves_baterias_digitalizacion/FLX/DSS/profiles/EV_profiles.csv, col=13, header=no) useactual=no
New Loadshape.EV_14 npts=96 mInterval=15 mult=(file=C:/Users/bjza0/Documents/Proyectos_actuales/ves_baterias_digitalizacion/FLX/DSS/profiles/EV_profiles.csv, col=14, header=no) useactual=no
New Loadshape.EV_15 npts=96 mInterval=15 mult=(file=C:/Users/bjza0/Documents/Proyectos_actuales/ves_baterias_digitalizacion/FLX/DSS/profiles/EV_profiles.csv, col=15, header=no) useactual=no
New Loadshape.EV_16 npts=96 mInterval=15 mult=(file=C:/Users/bjza0/Documents/Proyectos_actuales/ves_baterias_digitalizacion/FLX/DSS/profiles/EV_profiles.csv, col=16, header=no) useactual=no
New Loadshape.EV_17 npts=96 mInterval=15 mult=(file=C:/Users/bjza0/Documents/Proyectos_actuales/ves_baterias_digitalizacion/FLX/DSS/profiles/EV_profiles.csv, col=17, header=no) useactual=no
New Loadshape.EV_18 npts=96 mInterval=15 mult=(file=C:/Users/bjza0/Documents/Proyectos_actuales/ves_baterias_digitalizacion/FLX/DSS/profiles/EV_profiles.csv, col=18, header=no) useactual=no
New Loadshape.EV_19 npts=96 mInterval=15 mult=(file=C:/Users/bjza0/Documents/Proyectos_actuales/ves_baterias_digitalizacion/FLX/DSS/profiles/EV_profiles.csv, col=19, header=no) useactual=no
New Loadshape.EV_20 npts=96 mInterval=15 mult=(file=C:/Users/bjza0/Documents/Proyectos_actuales/ves_baterias_digitalizacion/FLX/DSS/profiles/EV_profiles.csv, col=20, header=no) useactual=no
New Loadshape.EV_21 npts=96 mInterval=15 mult=(file=C:/Users/bjza0/Documents/Proyectos_actuales/ves_baterias_digitalizacion/FLX/DSS/profiles/EV_profiles.csv, col=21, header=no) useactual=no
New Loadshape.EV_22 npts=96 mInterval=15 mult=(file=C:/Users/bjza0/Documents/Proyectos_actuales/ves_baterias_digitalizacion/FLX/DSS/profiles/EV_profiles.csv, col=22, header=no) useactual=no
New Loadshape.EV_23 npts=96 mInterval=15 mult=(file=C:/Users/bjza0/Documents/Proyectos_actuales/ves_baterias_digitalizacion/FLX/DSS/profiles/EV_profiles.csv, col=23, header=no) useactual=no
New Loadshape.EV_24 npts=96 mInterval=15 mult=(file=C:/Users/bjza0/Documents/Proyectos_actuales/ves_baterias_digitalizacion/FLX/DSS/profiles/EV_profiles.csv, col=24, header=no) useactual=no
New Loadshape.EV_25 npts=96 mInterval=15 mult=(file=C:/Users/bjza0/Documents/Proyectos_actuales/ves_baterias_digitalizacion/FLX/DSS/profiles/EV_profiles.csv, col=25, header=no) useactual=no
New Loadshape.EV_26 npts=96 mInterval=15 mult=(file=C:/Users/bjza0/Documents/Proyectos_actuales/ves_baterias_digitalizacion/FLX/DSS/profiles/EV_profiles.csv, col=26, header=no) useactual=no
New Loadshape.EV_27 npts=96 mInterval=15 mult=(file=C:/Users/bjza0/Documents/Proyectos_actuales/ves_baterias_digitalizacion/FLX/DSS/profiles/EV_profiles.csv, col=27, header=no) useactual=no
New Loadshape.EV_28 npts=96 mInterval=15 mult=(file=C:/Users/bjza0/Documents/Proyectos_actuales/ves_baterias_digitalizacion/FLX/DSS/profiles/EV_profiles.csv, col=28, header=no) useactual=no
New Loadshape.EV_29 npts=96 mInterval=15 mult=(file=C:/Users/bjza0/Documents/Proyectos_actuales/ves_baterias_digitalizacion/FLX/DSS/profiles/EV_profiles.csv, col=29, header=no) useactual=no
New Loadshape.EV_30 npts=96 mInterval=15 mult=(file=C:/Users/bjza0/Documents/Proyectos_actuales/ves_baterias_digitalizacion/FLX/DSS/profiles/EV_profiles.csv, col=30, header=no) useactual=no
New Loadshape.EV_31 npts=96 mInterval=15 mult=(file=C:/Users/bjza0/Documents/Proyectos_actuales/ves_baterias_digitalizacion/FLX/DSS/profiles/EV_profiles.csv, col=31, header=no) useactual=no
New Loadshape.EV_32 npts=96 mInterval=15 mult=(file=C:/Users/bjza0/Documents/Proyectos_actuales/ves_baterias_digitalizacion/FLX/DSS/profiles/EV_profiles.csv, col=32, header=no) useactual=no
New Loadshape.EV_33 npts=96 mInterval=15 mult=(file=C:/Users/bjza0/Documents/Proyectos_actuales/ves_baterias_digitalizacion/FLX/DSS/profiles/EV_profiles.csv, col=33, header=no) useactual=no
New Loadshape.EV_34 npts=96 mInterval=15 mult=(file=C:/Users/bjza0/Documents/Proyectos_actuales/ves_baterias_digitalizacion/FLX/DSS/profiles/EV_profiles.csv, col=34, header=no) useactual=no
New Loadshape.EV_35 npts=96 mInterval=15 mult=(file=C:/Users/bjza0/Documents/Proyectos_actuales/ves_baterias_digitalizacion/FLX/DSS/profiles/EV_profiles.csv, col=35, header=no) useactual=no
New Loadshape.EV_36 npts=96 mInterval=15 mult=(file=C:/Users/bjza0/Documents/Proyectos_actuales/ves_baterias_digitalizacion/FLX/DSS/profiles/EV_profiles.csv, col=36, header=no) useactual=no
New Loadshape.EV_37 npts=96 mInterval=15 mult=(file=C:/Users/bjza0/Documents/Proyectos_actuales/ves_baterias_digitalizacion/FLX/DSS/profiles/EV_profiles.csv, col=37, header=no) useactual=no
New Loadshape.EV_38 npts=96 mInterval=15 mult=(file=C:/Users/bjza0/Documents/Proyectos_actuales/ves_baterias_digitalizacion/FLX/DSS/profiles/EV_profiles.csv, col=38, header=no) useactual=no
New Loadshape.EV_39 npts=96 mInterval=15 mult=(file=C:/Users/bjza0/Documents/Proyectos_actuales/ves_baterias_digitalizacion/FLX/DSS/profiles/EV_profiles.csv, col=39, header=no) useactual=no
New Loadshape.EV_40 npts=96 mInterval=15 mult=(file=C:/Users/bjza0/Documents/Proyectos_actuales/ves_baterias_digitalizacion/FLX/DSS/profiles/EV_profiles.csv, col=40, header=no) useactual=no
New Loadshape.EV_41 npts=96 mInterval=15 mult=(file=C:/Users/bjza0/Documents/Proyectos_actuales/ves_baterias_digitalizacion/FLX/DSS/profiles/EV_profiles.csv, col=41, header=no) useactual=no
New Loadshape.EV_42 npts=96 mInterval=15 mult=(file=C:/Users/bjza0/Documents/Proyectos_actuales/ves_baterias_digitalizacion/FLX/DSS/profiles/EV_profiles.csv, col=42, header=no) useactual=no
New Loadshape.EV_43 npts=96 mInterval=15 mult=(file=C:/Users/bjza0/Documents/Proyectos_actuales/ves_baterias_digitalizacion/FLX/DSS/profiles/EV_profiles.csv, col=43, header=no) useactual=no
New Loadshape.EV_44 npts=96 mInterval=15 mult=(file=C:/Users/bjza0/Documents/Proyectos_actuales/ves_baterias_digitalizacion/FLX/DSS/profiles/EV_profiles.csv, col=44, header=no) useactual=no
New Loadshape.EV_45 npts=96 mInterval=15 mult=(file=C:/Users/bjza0/Documents/Proyectos_actuales/ves_baterias_digitalizacion/FLX/DSS/profiles/EV_profiles.csv, col=45, header=no) useactual=no
