new load.n_1FAGO1 bus1=BUSLVAGO1509.1.2 kV=0.208 model=1 conn=wye kW=1.0 kvar=0.1 status=variable phases=1 daily=curve7911_00R !kWh=7942 class=R !Group=NULL
new load.n_1FAGO2 bus1=BUSLVAGO1599.1.2 kV=0.208 model=1 conn=wye kW=1.0 kvar=0.1 status=variable phases=1 daily=curve641_00R !kWh=646 class=R !Group=NULL
new load.n_1FAGO3 bus1=BUSLVAGO1511.1 kV=0.12 model=1 conn=wye kW=1.0 kvar=0.1 status=variable phases=1 daily=curve167_00R !kWh=169 class=R !Group=NULL
new load.n_1FAGO4 bus1=BUSLVAGO1529.1 kV=0.12 model=1 conn=wye kW=1.0 kvar=0.1 status=variable phases=1 daily=curve53_00R !kWh=53 class=R !Group=NULL
new load.n_1FAGO5 bus1=BUSLVAGO1591.1 kV=0.12 model=1 conn=wye kW=1.0 kvar=0.1 status=variable phases=1 daily=curve287_43R !kWh=289 class=R !Group=NULL
new load.n_1FAGO6 bus1=BUSLVAGO1514.1.2 kV=0.208 model=1 conn=wye kW=1.0 kvar=0.1 status=variable phases=1 daily=curve61_00R !kWh=62 class=R !Group=NULL
new load.n_1FAGO7 bus1=BUSLVAGO1512.1.2 kV=0.208 model=1 conn=wye kW=1.0 kvar=0.1 status=variable phases=1 daily=curve294_98R !kWh=296 class=R !Group=NULL
new load.n_1FAGO8 bus1=BUSLVAGO1558.1.2 kV=0.208 model=1 conn=wye kW=1.0 kvar=0.1 status=variable phases=1 daily=curve464_49R !kWh=466 class=R !Group=NULL
new load.n_1FAGO9 bus1=BUSLVAGO1517.1.2 kV=0.208 model=1 conn=wye kW=1.0 kvar=0.1 status=variable phases=1 daily=curve505_37R !kWh=502 class=R !Group=NULL
new load.n_1FAGO10 bus1=BUSLVAGO8303.1.2 kV=0.208 model=1 conn=wye kW=1.0 kvar=0.1 status=variable phases=1 daily=curve610_00R !kWh=611 class=R !Group=NULL
new load.n_1FAGO11 bus1=BUSLVAGO8304.1.2 kV=0.208 model=1 conn=wye kW=1.0 kvar=0.1 status=variable phases=1 daily=curve556_00R !kWh=560 class=R !Group=NULL
new load.n_1FAGO12 bus1=BUSLVAGO8305.1 kV=0.12 model=1 conn=wye kW=1.0 kvar=0.1 status=variable phases=1 daily=curve33_00R !kWh=33 class=R !Group=NULL
new load.n_1FAGO13 bus1=BUSLVAGO8306.1.2 kV=0.208 model=1 conn=wye kW=1.0 kvar=0.1 status=variable phases=1 daily=curve582_00R !kWh=588 class=R !Group=NULL
new load.n_1FAGO14 bus1=BUSLVAGO1518.1.2 kV=0.208 model=1 conn=wye kW=1.0 kvar=0.3 status=variable phases=1 daily=curve64_00C !kWh=64 class=C !Group=NULL
new load.n_1FAGO15 bus1=BUSLVAGO1605.1.2 kV=0.208 model=1 conn=wye kW=1.0 kvar=0.1 status=variable phases=1 daily=curve264_00R !kWh=262 class=R !Group=NULL
new load.n_1FAGO16 bus1=BUSLVAGO1521.1.2 kV=0.208 model=1 conn=wye kW=1.0 kvar=0.1 status=variable phases=1 daily=curve445_44R !kWh=441 class=R !Group=NULL
new load.n_1FAGO17 bus1=BUSLVAGO1520.1.2 kV=0.208 model=1 conn=wye kW=1.0 kvar=0.1 status=variable phases=1 daily=curve98_00R !kWh=98 class=R !Group=NULL
new load.n_1FAGO18 bus1=BUSLVAGO1575.1 kV=0.12 model=1 conn=wye kW=1.0 kvar=0.1 status=variable phases=1 daily=curve188_00R !kWh=189 class=R !Group=NULL
new load.n_1FAGO19 bus1=BUSLVAGO1523.1 kV=0.12 model=1 conn=wye kW=1.0 kvar=0.1 status=variable phases=1 daily=curve188_00R !kWh=188 class=R !Group=NULL
new load.n_1FAGO20 bus1=BUSLVAGO1524.1.2 kV=0.208 model=1 conn=wye kW=1.0 kvar=0.1 status=variable phases=1 daily=curve353_33R !kWh=350 class=R !Group=NULL
new load.n_1FAGO21 bus1=BUSLVAGO1525.1 kV=0.12 model=1 conn=wye kW=1.0 kvar=0.1 status=variable phases=1 daily=curve115_00R !kWh=115 class=R !Group=NULL
new load.n_1FAGO22 bus1=BUSLVAGO1526.1 kV=0.12 model=1 conn=wye kW=1.0 kvar=0.1 status=variable phases=1 daily=curve143_00R !kWh=143 class=R !Group=NULL
new load.n_1FAGO23 bus1=BUSLVAGO8418.1.2 kV=0.208 model=1 conn=wye kW=1.0 kvar=0.1 status=variable phases=1 daily=curve269_45R !kWh=268 class=R !Group=NULL
new load.n_1FAGO24 bus1=BUSLVAGO1527.1.2 kV=0.208 model=1 conn=wye kW=1.0 kvar=0.3 status=variable phases=1 daily=curve1005_00C !kWh=1005 class=C !Group=NULL
new load.n_1FAGO25 bus1=BUSLVAGO1528.1.2 kV=0.208 model=1 conn=wye kW=1.0 kvar=0.1 status=variable phases=1 daily=curve95_00R !kWh=96 class=R !Group=NULL
new load.n_1FAGO26 bus1=BUSLVAGO1544.1.2 kV=0.208 model=1 conn=wye kW=1.0 kvar=0.1 status=variable phases=1 daily=curve139_43R !kWh=138 class=R !Group=NULL
new load.n_1FAGO27 bus1=BUSLVAGO1530.1.2 kV=0.208 model=1 conn=wye kW=1.0 kvar=0.1 status=variable phases=1 daily=curve1138_00R !kWh=1127 class=R !Group=NULL
new load.n_1FAGO28 bus1=BUSLVAGO1531.1 kV=0.12 model=1 conn=wye kW=1.0 kvar=0.1 status=variable phases=1 daily=curve332_00R !kWh=334 class=R !Group=NULL
new load.n_1FAGO29 bus1=BUSLVAGO1541.1.2 kV=0.208 model=1 conn=wye kW=1.0 kvar=0.1 status=variable phases=1 daily=curve172_00R !kWh=171 class=R !Group=NULL
new load.n_1FAGO30 bus1=BUSLVAGO1608.1.2 kV=0.208 model=1 conn=wye kW=1.0 kvar=0.1 status=variable phases=1 daily=curve47_00R !kWh=47 class=R !Group=NULL
new load.n_1FAGO31 bus1=BUSLVAGO8358.1.2 kV=0.208 model=1 conn=wye kW=1.0 kvar=0.1 status=variable phases=1 daily=curve778_00R !kWh=770 class=R !Group=NULL
new load.n_1FAGO32 bus1=BUSLVAGO1534.1.2 kV=0.208 model=1 conn=wye kW=1.0 kvar=0.1 status=variable phases=1 daily=curve15_00R !kWh=15 class=R !Group=NULL
new load.n_1FAGO33 bus1=BUSLVAGO1535.1 kV=0.12 model=1 conn=wye kW=1.0 kvar=0.1 status=variable phases=1 daily=curve107_00R !kWh=108 class=R !Group=NULL
new load.n_1FAGO34 bus1=BUSLVAGO8368.1.2 kV=0.208 model=1 conn=wye kW=1.0 kvar=0.1 status=variable phases=1 daily=curve139_43R !kWh=138 class=R !Group=NULL
new load.n_1FAGO35 bus1=BUSLVAGO8369.1.2 kV=0.208 model=1 conn=wye kW=1.0 kvar=0.1 status=variable phases=1 daily=curve219_48R !kWh=219 class=R !Group=NULL
new load.n_1FAGO36 bus1=BUSLVAGO1568.1.2 kV=0.208 model=1 conn=wye kW=1.0 kvar=0.1 status=variable phases=1 daily=curve150_00R !kWh=149 class=R !Group=NULL
new load.n_1FAGO37 bus1=BUSLVAGO8373.1.2 kV=0.208 model=1 conn=wye kW=1.0 kvar=0.1 status=variable phases=1 daily=curve91_00R !kWh=92 class=R !Group=NULL
new load.n_1FAGO38 bus1=BUSLVAGO1565.1.2 kV=0.208 model=1 conn=wye kW=1.0 kvar=0.1 status=variable phases=1 daily=curve188_00R !kWh=186 class=R !Group=NULL
new load.n_1FAGO39 bus1=BUSLVAGO8428.1.2 kV=0.208 model=1 conn=wye kW=1.0 kvar=0.1 status=variable phases=1 daily=curve235_80R !kWh=236 class=R !Group=NULL
new load.n_1FAGO40 bus1=BUSLVAGO8432.1.2 kV=0.208 model=1 conn=wye kW=1.0 kvar=0.1 status=variable phases=1 daily=curve625_00R !kWh=626 class=R !Group=NULL
new load.n_1FAGO41 bus1=BUSLVAGO1538.1.2 kV=0.208 model=1 conn=wye kW=1.0 kvar=0.1 status=variable phases=1 daily=curve132_00R !kWh=134 class=R !Group=NULL
new load.n_1FAGO42 bus1=BUSLVAGO8320.1.2 kV=0.208 model=1 conn=wye kW=1.0 kvar=0.1 status=variable phases=1 daily=curve127_00R !kWh=129 class=R !Group=NULL
new load.n_1FAGO43 bus1=BUSLVAGO1539.1 kV=0.12 model=1 conn=wye kW=1.0 kvar=0.1 status=variable phases=1 daily=curve127_00R !kWh=128 class=R !Group=NULL
new load.n_1FAGO44 bus1=BUSLVAGO1540.1 kV=0.12 model=1 conn=wye kW=1.0 kvar=0.1 status=variable phases=1 daily=curve177_00R !kWh=177 class=R !Group=NULL
new load.n_1FAGO45 bus1=BUSLVAGO8309.1.2 kV=0.208 model=1 conn=wye kW=1.0 kvar=0.1 status=variable phases=1 daily=curve63_00R !kWh=63 class=R !Group=NULL
new load.n_1FAGO46 bus1=BUSLVAGO8316.1.2 kV=0.208 model=1 conn=wye kW=1.0 kvar=0.1 status=variable phases=1 daily=curve277_25R !kWh=277 class=R !Group=NULL
new load.n_1FAGO47 bus1=BUSLVAGO8374.1.2 kV=0.208 model=1 conn=wye kW=1.0 kvar=0.1 status=variable phases=1 daily=curve49_00R !kWh=50 class=R !Group=NULL
new load.n_1FAGO48 bus1=BUSLVAGO8319.1.2 kV=0.208 model=1 conn=wye kW=1.0 kvar=0.1 status=variable phases=1 daily=curve241_72R !kWh=240 class=R !Group=NULL
new load.n_1FAGO49 bus1=BUSLVAGO1609.1.2 kV=0.208 model=1 conn=wye kW=1.0 kvar=0.1 status=variable phases=1 daily=curve230_00R !kWh=231 class=R !Group=NULL
new load.n_1FAGO50 bus1=BUSLVAGO1542.1 kV=0.12 model=1 conn=wye kW=1.0 kvar=0.1 status=variable phases=1 daily=curve132_00R !kWh=130 class=R !Group=NULL
new load.n_1FAGO51 bus1=BUSLVAGO1583.1 kV=0.12 model=1 conn=wye kW=1.0 kvar=0.1 status=variable phases=1 daily=curve198_33R !kWh=198 class=R !Group=NULL
new load.n_1FAGO52 bus1=BUSLVAGO1515.1 kV=0.12 model=1 conn=wye kW=1.0 kvar=0.1 status=variable phases=1 daily=curve207_00R !kWh=203 class=R !Group=NULL
new load.n_1FAGO53 bus1=BUSLVAGO8315.1.2 kV=0.208 model=1 conn=wye kW=1.0 kvar=0.1 status=variable phases=1 daily=curve258_75R !kWh=261 class=R !Group=NULL
new load.n_1FAGO54 bus1=BUSLVAGO8435.1.2 kV=0.208 model=1 conn=wye kW=1.0 kvar=0.1 status=variable phases=1 daily=curve194_00R !kWh=194 class=R !Group=NULL
new load.n_1FAGO55 bus1=BUSLVAGO1545.1.2 kV=0.208 model=1 conn=wye kW=1.0 kvar=0.1 status=variable phases=1 daily=curve294_98R !kWh=295 class=R !Group=NULL
new load.n_1FAGO56 bus1=BUSLVAGO8322.1.2 kV=0.208 model=1 conn=wye kW=1.0 kvar=0.1 status=variable phases=1 daily=curve355_34R !kWh=355 class=R !Group=NULL
new load.n_1FAGO57 bus1=BUSLVAGO8323.1.2 kV=0.208 model=1 conn=wye kW=1.0 kvar=0.3 status=variable phases=1 daily=curve1172_00C !kWh=1170 class=C !Group=NULL
new load.n_1FAGO58 bus1=BUSLVAGO1546.1.2 kV=0.208 model=1 conn=wye kW=1.0 kvar=0.1 status=variable phases=1 daily=curve219_48R !kWh=221 class=R !Group=NULL
new load.n_1FAGO59 bus1=BUSLVAGO8333.1.2 kV=0.208 model=1 conn=wye kW=1.0 kvar=0.1 status=variable phases=1 daily=curve9840_00R !kWh=9840 class=R !Group=NULL
new load.n_1FAGO60 bus1=BUSLVAGO8325.1.2 kV=0.208 model=1 conn=wye kW=1.0 kvar=0.1 status=variable phases=1 daily=curve287_43R !kWh=289 class=R !Group=NULL
new load.n_1FAGO61 bus1=BUSLVAGO8408.1.2 kV=0.208 model=1 conn=wye kW=1.0 kvar=0.1 status=variable phases=1 daily=curve556_00R !kWh=557 class=R !Group=NULL
new load.n_1FAGO62 bus1=BUSLVAGO1547.1 kV=0.12 model=1 conn=wye kW=1.0 kvar=0.3 status=variable phases=1 daily=curve104_00C !kWh=103 class=C !Group=NULL
new load.n_1FAGO63 bus1=BUSLVAGO8360.1.2 kV=0.208 model=1 conn=wye kW=1.0 kvar=0.1 status=variable phases=1 daily=curve139_43R !kWh=139 class=R !Group=NULL
new load.n_1FAGO64 bus1=BUSLVAGO8412.1.2 kV=0.208 model=1 conn=wye kW=1.0 kvar=0.1 status=variable phases=1 daily=curve320_19R !kWh=318 class=R !Group=NULL
new load.n_1FAGO65 bus1=BUSLVAGO8317.1.2 kV=0.208 model=1 conn=wye kW=1.0 kvar=0.1 status=variable phases=1 daily=curve132_00R !kWh=131 class=R !Group=NULL
new load.n_1FAGO66 bus1=BUSLVAGO8318.1.2 kV=0.208 model=1 conn=wye kW=1.0 kvar=0.1 status=variable phases=1 daily=curve327_93R !kWh=328 class=R !Group=NULL
new load.n_1FAGO67 bus1=BUSLVAGO1554.1.2 kV=0.208 model=1 conn=wye kW=1.0 kvar=0.3 status=variable phases=1 daily=curve104_00C !kWh=104 class=C !Group=NULL
new load.n_1FAGO68 bus1=BUSLVAGO8312.1.2 kV=0.208 model=1 conn=wye kW=1.0 kvar=0.1 status=variable phases=1 daily=curve5_00R !kWh=5 class=R !Group=NULL
new load.n_1FAGO69 bus1=BUSLVAGO8336.1.2 kV=0.208 model=1 conn=wye kW=1.0 kvar=0.1 status=variable phases=1 daily=curve269_45R !kWh=271 class=R !Group=NULL
new load.n_1FAGO70 bus1=BUSLVAGO8334.1.2 kV=0.208 model=1 conn=wye kW=1.0 kvar=0.1 status=variable phases=1 daily=curve567_55R !kWh=565 class=R !Group=NULL
new load.n_1FAGO71 bus1=BUSLVAGO1549.1.2 kV=0.208 model=1 conn=wye kW=1.0 kvar=0.1 status=variable phases=1 daily=curve632_63R !kWh=631 class=R !Group=NULL
new load.n_1FAGO72 bus1=BUSLVAGO8350.1.2 kV=0.208 model=1 conn=wye kW=1.0 kvar=0.1 status=variable phases=1 daily=curve264_00R !kWh=264 class=R !Group=NULL
new load.n_1FAGO73 bus1=BUSLVAGO8337.1.2 kV=0.208 model=1 conn=wye kW=1.0 kvar=0.1 status=variable phases=1 daily=curve230_00R !kWh=231 class=R !Group=NULL
new load.n_1FAGO74 bus1=BUSLVAGO1550.1.2 kV=0.208 model=1 conn=wye kW=1.0 kvar=0.1 status=variable phases=1 daily=curve355_34R !kWh=357 class=R !Group=NULL
new load.n_1FAGO75 bus1=BUSLVAGO1551.1.2 kV=0.208 model=1 conn=wye kW=1.0 kvar=0.1 status=variable phases=1 daily=curve112_00R !kWh=112 class=R !Group=NULL
new load.n_1FAGO76 bus1=BUSLVAGO8338.1.2 kV=0.208 model=1 conn=wye kW=1.0 kvar=0.1 status=variable phases=1 daily=curve132_00R !kWh=134 class=R !Group=NULL
new load.n_1FAGO77 bus1=BUSLVAGO8349.1.2 kV=0.208 model=1 conn=wye kW=1.0 kvar=0.1 status=variable phases=1 daily=curve91_00R !kWh=91 class=R !Group=NULL
new load.n_1FAGO78 bus1=BUSLVAGO1577.1.2 kV=0.208 model=1 conn=wye kW=1.0 kvar=0.3 status=variable phases=1 daily=curve384_16C !kWh=388 class=C !Group=NULL
new load.n_1FAGO79 bus1=BUSLVAGO8341.1.2 kV=0.208 model=1 conn=wye kW=1.0 kvar=0.1 status=variable phases=1 daily=curve567_55R !kWh=569 class=R !Group=NULL
new load.n_1FAGO80 bus1=BUSLVAGO8434.1.2 kV=0.208 model=1 conn=wye kW=1.0 kvar=0.1 status=variable phases=1 daily=curve167_00R !kWh=168 class=R !Group=NULL
new load.n_1FAGO81 bus1=BUSLVAGO8405.1.2 kV=0.208 model=1 conn=wye kW=1.0 kvar=0.1 status=variable phases=1 daily=curve556_00R !kWh=551 class=R !Group=NULL
new load.n_1FAGO82 bus1=BUSLVAGO1553.1.2 kV=0.208 model=1 conn=wye kW=1.0 kvar=0.1 status=variable phases=1 daily=curve132_00R !kWh=132 class=R !Group=NULL
new load.n_1FAGO83 bus1=BUSLVAGO8345.1.2 kV=0.208 model=1 conn=wye kW=1.0 kvar=0.1 status=variable phases=1 daily=curve47_00R !kWh=47 class=R !Group=NULL
new load.n_1FAGO84 bus1=BUSLVAGO8313.1.2 kV=0.208 model=1 conn=wye kW=1.0 kvar=0.1 status=variable phases=1 daily=curve124_00R !kWh=125 class=R !Group=NULL
new load.n_1FAGO85 bus1=BUSLVAGO8400.1.2 kV=0.208 model=1 conn=wye kW=1.0 kvar=0.1 status=variable phases=1 daily=curve353_33R !kWh=354 class=R !Group=NULL
new load.n_1FAGO86 bus1=BUSLVAGO8339.1.2 kV=0.208 model=1 conn=wye kW=1.0 kvar=0.1 status=variable phases=1 daily=curve264_00R !kWh=264 class=R !Group=NULL
new load.n_1FAGO87 bus1=BUSLVAGO8387.1.2 kV=0.208 model=1 conn=wye kW=1.0 kvar=0.1 status=variable phases=1 daily=curve597_00R !kWh=596 class=R !Group=NULL
new load.n_1FAGO88 bus1=BUSLVAGO1564.1.2 kV=0.208 model=1 conn=wye kW=1.0 kvar=0.1 status=variable phases=1 daily=curve180_93R !kWh=181 class=R !Group=NULL
new load.n_1FAGO89 bus1=BUSLVAGO8335.1.2 kV=0.208 model=1 conn=wye kW=1.0 kvar=0.1 status=variable phases=1 daily=curve250_41R !kWh=251 class=R !Group=NULL
new load.n_1FAGO90 bus1=BUSLVAGO8344.1.2 kV=0.208 model=1 conn=wye kW=1.0 kvar=0.1 status=variable phases=1 daily=curve434_00R !kWh=435 class=R !Group=NULL
new load.n_1FAGO91 bus1=BUSLVAGO1556.1.2 kV=0.208 model=1 conn=wye kW=1.0 kvar=0.3 status=variable phases=1 daily=curve1199_00C !kWh=1201 class=C !Group=NULL
new load.n_1FAGO92 bus1=BUSLVAGO1557.1.2 kV=0.208 model=1 conn=wye kW=1.0 kvar=0.1 status=variable phases=1 daily=curve79_00R !kWh=80 class=R !Group=NULL
new load.n_1FAGO93 bus1=BUSLVAGO8354.1.2 kV=0.208 model=1 conn=wye kW=1.0 kvar=0.1 status=variable phases=1 daily=curve225_00R !kWh=226 class=R !Group=NULL
new load.n_1FAGO94 bus1=BUSLVAGO8416.1.2 kV=0.208 model=1 conn=wye kW=1.0 kvar=0.1 status=variable phases=1 daily=curve567_55R !kWh=563 class=R !Group=NULL
new load.n_1FAGO95 bus1=BUSLVAGO1516.1.2 kV=0.208 model=1 conn=wye kW=1.0 kvar=0.1 status=variable phases=1 daily=curve76_00R !kWh=77 class=R !Group=NULL
new load.n_1FAGO96 bus1=BUSLVAGO8371.1.2 kV=0.208 model=1 conn=wye kW=1.0 kvar=0.1 status=variable phases=1 daily=curve230_00R !kWh=232 class=R !Group=NULL
new load.n_1FAGO97 bus1=BUSLVAGO1559.1.2 kV=0.208 model=1 conn=wye kW=1.0 kvar=0.3 status=variable phases=1 daily=curve3425_00C !kWh=3425 class=C !Group=NULL
new load.n_1FAGO98 bus1=BUSLVAGO1560.1.2 kV=0.208 model=1 conn=wye kW=1.0 kvar=0.1 status=variable phases=1 daily=curve225_00R !kWh=226 class=R !Group=NULL
new load.n_1FAGO99 bus1=BUSLVAGO8423.1.2 kV=0.208 model=1 conn=wye kW=1.0 kvar=0.1 status=variable phases=1 daily=curve401_82R !kWh=397 class=R !Group=NULL
new load.n_1FAGO100 bus1=BUSLVAGO8437.1.2 kV=0.208 model=1 conn=wye kW=1.0 kvar=0.1 status=variable phases=1 daily=curve230_00R !kWh=230 class=R !Group=NULL
new load.n_1FAGO101 bus1=BUSLVAGO8421.1.2 kV=0.208 model=1 conn=wye kW=1.0 kvar=0.1 status=variable phases=1 daily=curve3_00R !kWh=3 class=R !Group=NULL
new load.n_1FAGO102 bus1=BUSLVAGO8332.1.2 kV=0.208 model=1 conn=wye kW=1.0 kvar=0.1 status=variable phases=1 daily=curve162_00R !kWh=164 class=R !Group=NULL
new load.n_1FAGO103 bus1=BUSLVAGO1593.1.2 kV=0.208 model=1 conn=wye kW=1.0 kvar=0.1 status=variable phases=1 daily=curve230_00R !kWh=231 class=R !Group=NULL
new load.n_1FAGO104 bus1=BUSLVAGO8342.1.2 kV=0.208 model=1 conn=wye kW=1.0 kvar=0.1 status=variable phases=1 daily=curve107_00R !kWh=108 class=R !Group=NULL
new load.n_1FAGO105 bus1=BUSLVAGO8395.1.2 kV=0.208 model=1 conn=wye kW=1.0 kvar=0.1 status=variable phases=1 daily=curve211_74R !kWh=213 class=R !Group=NULL
new load.n_1FAGO106 bus1=BUSLVAGO8363.1.2 kV=0.208 model=1 conn=wye kW=1.0 kvar=0.1 status=variable phases=1 daily=curve495_60R !kWh=499 class=R !Group=NULL
new load.n_1FAGO107 bus1=BUSLVAGO1562.1.2 kV=0.208 model=1 conn=wye kW=1.0 kvar=0.3 status=variable phases=1 daily=curve75_00C !kWh=74 class=C !Group=NULL
new load.n_1FAGO108 bus1=BUSLVAGO8414.1.2 kV=0.208 model=1 conn=wye kW=1.0 kvar=0.1 status=variable phases=1 daily=curve488_08R !kWh=490 class=R !Group=NULL
new load.n_1FAGO109 bus1=BUSLVAGO8311.1.2 kV=0.208 model=1 conn=wye kW=1.0 kvar=0.1 status=variable phases=1 daily=curve304_21R !kWh=308 class=R !Group=NULL
new load.n_1FAGO110 bus1=BUSLVAGO8436.1.2 kV=0.208 model=1 conn=wye kW=1.0 kvar=0.1 status=variable phases=1 daily=curve95_00R !kWh=95 class=R !Group=NULL
new load.n_1FAGO111 bus1=BUSLVAGO1548.1.2 kV=0.208 model=1 conn=wye kW=1.0 kvar=0.3 status=variable phases=1 daily=curve185_00C !kWh=186 class=C !Group=NULL
new load.n_1FAGO112 bus1=BUSLVAGO1533.1.2 kV=0.208 model=1 conn=wye kW=1.0 kvar=0.1 status=variable phases=1 daily=curve413_00R !kWh=410 class=R !Group=NULL
new load.n_1FAGO113 bus1=BUSLVAGO8328.1.2 kV=0.208 model=1 conn=wye kW=1.0 kvar=0.1 status=variable phases=1 daily=curve124_00R !kWh=123 class=R !Group=NULL
new load.n_1FAGO114 bus1=BUSLVAGO8321.1.2 kV=0.208 model=1 conn=wye kW=1.0 kvar=0.1 status=variable phases=1 daily=curve107_00R !kWh=106 class=R !Group=NULL
new load.n_1FAGO115 bus1=BUSLVAGO1566.1 kV=0.12 model=1 conn=wye kW=1.0 kvar=0.1 status=variable phases=1 daily=curve66_00R !kWh=66 class=R !Group=NULL
new load.n_1FAGO116 bus1=BUSLVAGO1567.1 kV=0.12 model=1 conn=wye kW=1.0 kvar=0.3 status=variable phases=1 daily=curve505_37C !kWh=500 class=C !Group=NULL
new load.n_1FAGO117 bus1=BUSLVAGO1569.1.2 kV=0.208 model=1 conn=wye kW=1.0 kvar=0.1 status=variable phases=1 daily=curve327_93R !kWh=327 class=R !Group=NULL
new load.n_1FAGO118 bus1=BUSLVAGO8377.1.2 kV=0.208 model=1 conn=wye kW=1.0 kvar=0.1 status=variable phases=1 daily=curve434_00R !kWh=435 class=R !Group=NULL
new load.n_1FAGO119 bus1=BUSLVAGO8326.1.2 kV=0.208 model=1 conn=wye kW=1.0 kvar=0.1 status=variable phases=1 daily=curve207_00R !kWh=205 class=R !Group=NULL
new load.n_1FAGO120 bus1=BUSLVAGO8406.1.2 kV=0.208 model=1 conn=wye kW=1.0 kvar=0.1 status=variable phases=1 daily=curve332_00R !kWh=332 class=R !Group=NULL
new load.n_1FAGO121 bus1=BUSLVAGO1536.1.2 kV=0.208 model=1 conn=wye kW=1.0 kvar=0.1 status=variable phases=1 daily=curve417_50R !kWh=418 class=R !Group=NULL
new load.n_1FAGO122 bus1=BUSLVAGO1570.1.2 kV=0.208 model=1 conn=wye kW=1.0 kvar=0.3 status=variable phases=1 daily=curve404_00C !kWh=400 class=C !Group=NULL
new load.n_1FAGO123 bus1=BUSLVAGO1571.1 kV=0.12 model=1 conn=wye kW=1.0 kvar=0.3 status=variable phases=1 daily=curve50_00C !kWh=50 class=C !Group=NULL
new load.n_1FAGO124 bus1=BUSLVAGO8381.1.2 kV=0.208 model=1 conn=wye kW=1.0 kvar=0.1 status=variable phases=1 daily=curve428_16R !kWh=428 class=R !Group=NULL
new load.n_1FAGO125 bus1=BUSLVAGO1574.1 kV=0.12 model=1 conn=wye kW=1.0 kvar=0.1 status=variable phases=1 daily=curve69_00R !kWh=70 class=R !Group=NULL
new load.n_1FAGO126 bus1=BUSLVAGO8329.1.2 kV=0.208 model=1 conn=wye kW=1.0 kvar=0.1 status=variable phases=1 daily=curve10_00R !kWh=10 class=R !Group=NULL
new load.n_1FAGO127 bus1=BUSLVAGO1597.1.2 kV=0.208 model=1 conn=wye kW=1.0 kvar=0.1 status=variable phases=1 daily=curve325_00R !kWh=324 class=R !Group=NULL
new load.n_1FAGO128 bus1=BUSLVAGO1604.1.2 kV=0.208 model=1 conn=wye kW=1.0 kvar=0.3 status=variable phases=1 daily=curve10_00C !kWh=10 class=C !Group=NULL
new load.n_1FAGO129 bus1=BUSLVAGO8384.1.2 kV=0.208 model=1 conn=wye kW=1.0 kvar=0.1 status=variable phases=1 daily=curve283_00R !kWh=282 class=R !Group=NULL
new load.n_1FAGO130 bus1=BUSLVAGO8386.1.2 kV=0.208 model=1 conn=wye kW=1.0 kvar=0.1 status=variable phases=1 daily=curve447_58R !kWh=452 class=R !Group=NULL
new load.n_1FAGO131 bus1=BUSLVAGO1522.1.2 kV=0.208 model=1 conn=wye kW=1.0 kvar=0.1 status=variable phases=1 daily=curve66_00R !kWh=67 class=R !Group=NULL
new load.n_1FAGO132 bus1=BUSLVAGO1610.1.2 kV=0.208 model=1 conn=wye kW=1.0 kvar=0.1 status=variable phases=1 daily=curve269_45R !kWh=271 class=R !Group=NULL
new load.n_1FAGO133 bus1=BUSLVAGO1552.1.2 kV=0.208 model=1 conn=wye kW=1.0 kvar=0.3 status=variable phases=1 daily=curve287_43C !kWh=286 class=C !Group=NULL
new load.n_1FAGO134 bus1=BUSLVAGO1578.1.2 kV=0.208 model=1 conn=wye kW=1.0 kvar=0.1 status=variable phases=1 daily=curve1801_00R !kWh=1781 class=R !Group=NULL
new load.n_1FAGO135 bus1=BUSLVAGO1586.1 kV=0.12 model=1 conn=wye kW=1.0 kvar=0.1 status=variable phases=1 daily=curve172_00R !kWh=174 class=R !Group=NULL
new load.n_1FAGO136 bus1=BUSLVAGO1580.1.2 kV=0.208 model=1 conn=wye kW=1.0 kvar=0.1 status=variable phases=1 daily=curve167_00R !kWh=169 class=R !Group=NULL
new load.n_1FAGO137 bus1=BUSLVAGO1581.1.2 kV=0.208 model=1 conn=wye kW=1.0 kvar=0.3 status=variable phases=1 daily=curve167_00C !kWh=167 class=C !Group=NULL
new load.n_1FAGO138 bus1=BUSLVAGO1582.1 kV=0.12 model=1 conn=wye kW=1.0 kvar=0.1 status=variable phases=1 daily=curve30_00R !kWh=30 class=R !Group=NULL
new load.n_1FAGO139 bus1=BUSLVAGO1543.1.2 kV=0.208 model=1 conn=wye kW=1.0 kvar=0.1 status=variable phases=1 daily=curve230_00R !kWh=230 class=R !Group=NULL
new load.n_1FAGO140 bus1=BUSLVAGO1573.1 kV=0.12 model=1 conn=wye kW=1.0 kvar=0.1 status=variable phases=1 daily=curve118_00R !kWh=119 class=R !Group=NULL
new load.n_1FAGO141 bus1=BUSLVAGO8388.1.2 kV=0.208 model=1 conn=wye kW=1.0 kvar=0.1 status=variable phases=1 daily=curve275_00R !kWh=274 class=R !Group=NULL
new load.n_1FAGO142 bus1=BUSLVAGO8431.1.2 kV=0.208 model=1 conn=wye kW=1.0 kvar=0.1 status=variable phases=1 daily=curve519_00R !kWh=520 class=R !Group=NULL
new load.n_1FAGO143 bus1=BUSLVAGO1537.1.2 kV=0.208 model=1 conn=wye kW=1.0 kvar=0.1 status=variable phases=1 daily=curve115_00R !kWh=115 class=R !Group=NULL
new load.n_1FAGO144 bus1=BUSLVAGO8391.1.2 kV=0.208 model=1 conn=wye kW=1.0 kvar=0.1 status=variable phases=1 daily=curve369_00R !kWh=371 class=R !Group=NULL
new load.n_1FAGO145 bus1=BUSLVAGO8392.1.2 kV=0.208 model=1 conn=wye kW=1.0 kvar=0.1 status=variable phases=1 daily=curve136_00R !kWh=135 class=R !Group=NULL
new load.n_1FAGO146 bus1=BUSLVAGO8390.1.2 kV=0.208 model=1 conn=wye kW=1.0 kvar=0.1 status=variable phases=1 daily=curve364_33R !kWh=364 class=R !Group=NULL
new load.n_1FAGO147 bus1=BUSLVAGO8389.1.2 kV=0.208 model=1 conn=wye kW=1.0 kvar=0.1 status=variable phases=1 daily=curve304_21R !kWh=306 class=R !Group=NULL
new load.n_1FAGO148 bus1=BUSLVAGO1584.1 kV=0.12 model=1 conn=wye kW=1.0 kvar=0.1 status=variable phases=1 daily=curve188_00R !kWh=189 class=R !Group=NULL
new load.n_1FAGO149 bus1=BUSLVAGO8396.1.2 kV=0.208 model=1 conn=wye kW=1.0 kvar=0.1 status=variable phases=1 daily=curve198_33R !kWh=202 class=R !Group=NULL
new load.n_1FAGO150 bus1=BUSLVAGO8398.1.2 kV=0.208 model=1 conn=wye kW=1.0 kvar=0.1 status=variable phases=1 daily=curve180_93R !kWh=179 class=R !Group=NULL
new load.n_1FAGO151 bus1=BUSLVAGO8348.1.2 kV=0.208 model=1 conn=wye kW=1.0 kvar=0.1 status=variable phases=1 daily=curve488_08R !kWh=490 class=R !Group=NULL
new load.n_1FAGO152 bus1=BUSLVAGO1587.1.2 kV=0.208 model=1 conn=wye kW=1.0 kvar=0.3 status=variable phases=1 daily=curve1199_00C !kWh=1192 class=C !Group=NULL
new load.n_1FAGO153 bus1=BUSLVAGO8401.1.2 kV=0.208 model=1 conn=wye kW=1.0 kvar=0.3 status=variable phases=1 daily=curve163_00C !kWh=163 class=C !Group=NULL
new load.n_1FAGO154 bus1=BUSLVAGO8397.1.2 kV=0.208 model=1 conn=wye kW=1.0 kvar=0.1 status=variable phases=1 daily=curve136_00R !kWh=135 class=R !Group=NULL
new load.n_1FAGO155 bus1=BUSLVAGO8385.1.2 kV=0.208 model=1 conn=wye kW=1.0 kvar=0.1 status=variable phases=1 daily=curve89_00R !kWh=89 class=R !Group=NULL
new load.n_1FAGO156 bus1=BUSLVAGO1588.1.2 kV=0.208 model=1 conn=wye kW=1.0 kvar=0.3 status=variable phases=1 daily=curve338_53C !kWh=340 class=C !Group=NULL
new load.n_1FAGO157 bus1=BUSLVAGO8817.1.2 kV=0.208 model=1 conn=wye kW=1.0 kvar=0.1 status=variable phases=1 daily=curve401_82R !kWh=401 class=R !Group=NULL
new load.n_1FAGO158 bus1=BUSLVAGO8429.1.2 kV=0.208 model=1 conn=wye kW=1.0 kvar=0.1 status=variable phases=1 daily=curve582_00R !kWh=583 class=R !Group=NULL
new load.n_1FAGO159 bus1=BUSLVAGO1589.1.2 kV=0.208 model=1 conn=wye kW=1.0 kvar=0.1 status=variable phases=1 daily=curve434_00R !kWh=432 class=R !Group=NULL
new load.n_1FAGO160 bus1=BUSLVAGO8409.1.2 kV=0.208 model=1 conn=wye kW=1.0 kvar=0.1 status=variable phases=1 daily=curve95_00R !kWh=95 class=R !Group=NULL
new load.n_1FAGO161 bus1=BUSLVAGO8417.1.2 kV=0.208 model=1 conn=wye kW=1.0 kvar=0.1 status=variable phases=1 daily=curve115_00R !kWh=115 class=R !Group=NULL
new load.n_1FAGO162 bus1=BUSLVAGO8380.1.2 kV=0.208 model=1 conn=wye kW=1.0 kvar=0.1 status=variable phases=1 daily=curve434_00R !kWh=436 class=R !Group=NULL
new load.n_1FAGO163 bus1=BUSLVAGO8364.1.2 kV=0.208 model=1 conn=wye kW=1.0 kvar=0.1 status=variable phases=1 daily=curve434_00R !kWh=435 class=R !Group=NULL
new load.n_1FAGO164 bus1=BUSLVAGO8367.1.2 kV=0.208 model=1 conn=wye kW=1.0 kvar=0.1 status=variable phases=1 daily=curve968_00R !kWh=985 class=R !Group=NULL
new load.n_1FAGO165 bus1=BUSLVAGO1592.1 kV=0.12 model=1 conn=wye kW=1.0 kvar=0.1 status=variable phases=1 daily=curve107_00R !kWh=109 class=R !Group=NULL
new load.n_1FAGO166 bus1=BUSLVAGO1513.1 kV=0.12 model=1 conn=wye kW=1.0 kvar=0.1 status=variable phases=1 daily=curve79_00R !kWh=79 class=R !Group=NULL
new load.n_1FAGO167 bus1=BUSLVAGO8415.1.2 kV=0.208 model=1 conn=wye kW=1.0 kvar=0.1 status=variable phases=1 daily=curve625_00R !kWh=623 class=R !Group=NULL
new load.n_1FAGO168 bus1=BUSLVAGO8355.1.2 kV=0.208 model=1 conn=wye kW=1.0 kvar=0.1 status=variable phases=1 daily=curve390_02R !kWh=389 class=R !Group=NULL
new load.n_1FAGO169 bus1=BUSLVAGO8424.1.2 kV=0.208 model=1 conn=wye kW=1.0 kvar=0.1 status=variable phases=1 daily=curve610_00R !kWh=609 class=R !Group=NULL
new load.n_1FAGO170 bus1=BUSLVAGO8307.1.2 kV=0.208 model=1 conn=wye kW=1.0 kvar=0.1 status=variable phases=1 daily=curve198_33R !kWh=198 class=R !Group=NULL
new load.n_1FAGO171 bus1=BUSLVAGO1590.1 kV=0.12 model=1 conn=wye kW=1.0 kvar=0.1 status=variable phases=1 daily=curve207_00R !kWh=203 class=R !Group=NULL
new load.n_1FAGO172 bus1=BUSLVAGO1561.1 kV=0.12 model=1 conn=wye kW=1.0 kvar=0.1 status=variable phases=1 daily=curve61_00R !kWh=60 class=R !Group=NULL
new load.n_1FAGO173 bus1=BUSLVAGO8410.1.2 kV=0.208 model=1 conn=wye kW=1.0 kvar=0.1 status=variable phases=1 daily=curve760_00R !kWh=761 class=R !Group=NULL
new load.n_1FAGO174 bus1=BUSLVAGO1594.1 kV=0.12 model=1 conn=wye kW=1.0 kvar=0.1 status=variable phases=1 daily=curve162_00R !kWh=162 class=R !Group=NULL
new load.n_1FAGO175 bus1=BUSLVAGO1595.1 kV=0.12 model=1 conn=wye kW=1.0 kvar=0.1 status=variable phases=1 daily=curve146_00R !kWh=145 class=R !Group=NULL
new load.n_1FAGO176 bus1=BUSLVAGO8422.1.2 kV=0.208 model=1 conn=wye kW=1.0 kvar=0.1 status=variable phases=1 daily=curve1032_00R !kWh=1039 class=R !Group=NULL
new load.n_1FAGO177 bus1=BUSLVAGO8411.1.2 kV=0.208 model=1 conn=wye kW=1.0 kvar=0.1 status=variable phases=1 daily=curve597_00R !kWh=594 class=R !Group=NULL
new load.n_1FAGO178 bus1=BUSLVAGO1596.1 kV=0.12 model=1 conn=wye kW=1.0 kvar=0.1 status=variable phases=1 daily=curve124_00R !kWh=125 class=R !Group=NULL
new load.n_1FAGO179 bus1=BUSLVAGO8359.1.2 kV=0.208 model=1 conn=wye kW=1.0 kvar=0.1 status=variable phases=1 daily=curve445_44R !kWh=440 class=R !Group=NULL
new load.n_1FAGO180 bus1=BUSLVAGO1579.1 kV=0.12 model=1 conn=wye kW=1.0 kvar=0.1 status=variable phases=1 daily=curve302_51R !kWh=303 class=R !Group=NULL
new load.n_1FAGO181 bus1=BUSLVAGO8430.1.2 kV=0.208 model=1 conn=wye kW=1.0 kvar=0.1 status=variable phases=1 daily=curve127_00R !kWh=127 class=R !Group=NULL
new load.n_1FAGO182 bus1=BUSLVAGO1606.1.2 kV=0.208 model=1 conn=wye kW=1.0 kvar=0.1 status=variable phases=1 daily=curve103_00R !kWh=101 class=R !Group=NULL
new load.n_1FAGO183 bus1=BUSLVAGO8310.1.2 kV=0.208 model=1 conn=wye kW=1.0 kvar=0.1 status=variable phases=1 daily=curve230_00R !kWh=232 class=R !Group=NULL
new load.n_1FAGO184 bus1=BUSLVAGO1510.1.2 kV=0.208 model=1 conn=wye kW=1.0 kvar=0.1 status=variable phases=1 daily=curve721_00R !kWh=710 class=R !Group=NULL
new load.n_1FAGO185 bus1=BUSLVAGO8426.1.2 kV=0.208 model=1 conn=wye kW=1.0 kvar=0.1 status=variable phases=1 daily=curve677_00R !kWh=673 class=R !Group=NULL
new load.n_1FAGO186 bus1=BUSLVAGO1600.1.2 kV=0.208 model=1 conn=wye kW=1.0 kvar=0.1 status=variable phases=1 daily=curve150_00R !kWh=151 class=R !Group=NULL
new load.n_1FAGO187 bus1=BUSLVAGO8357.1.2 kV=0.208 model=1 conn=wye kW=1.0 kvar=0.1 status=variable phases=1 daily=curve250_41R !kWh=250 class=R !Group=NULL
new load.n_1FAGO188 bus1=BUSLVAGO1601.1.2 kV=0.208 model=1 conn=wye kW=1.0 kvar=0.1 status=variable phases=1 daily=curve136_00R !kWh=136 class=R !Group=NULL
new load.n_1FAGO189 bus1=BUSLVAGO1602.1.2 kV=0.208 model=1 conn=wye kW=1.0 kvar=0.1 status=variable phases=1 daily=curve225_00R !kWh=224 class=R !Group=NULL
new load.n_1FAGO190 bus1=BUSLVAGO1603.1.2 kV=0.208 model=1 conn=wye kW=1.0 kvar=0.3 status=variable phases=1 daily=curve61_00C !kWh=61 class=C !Group=NULL
new load.n_1FAGO191 bus1=BUSLVAGO8383.1.2 kV=0.208 model=1 conn=wye kW=1.0 kvar=0.1 status=variable phases=1 daily=curve167_00R !kWh=165 class=R !Group=NULL
new load.n_1FAGO192 bus1=BUSLVAGO1572.1 kV=0.12 model=1 conn=wye kW=1.0 kvar=0.3 status=variable phases=1 daily=curve107_00C !kWh=106 class=C !Group=NULL