new line.LV1FAGO1 bus1=BUSLVAGO579.1.2 bus2=BUSLVAGO214.1.2 Linecode=TRPX2/0AAAC length=2.2838 units=m !1ph_basekV=0.12 Group=NULL
new line.LV1FAGO2 bus1=BUSLVAGO580.1.2 bus2=BUSLVAGO579.1.2 Linecode=TRPX2/0AAAC length=47.7563 units=m !1ph_basekV=0.12 Group=NULL
new line.LV1FAGO3 bus1=BUSLVAGO584.1.2 bus2=BUSLVAGO579.1.2 Linecode=TRPX2/0AAAC length=47.5509 units=m !1ph_basekV=0.12 Group=NULL
new line.LV1FAGO4 bus1=BUSLVAGO611.1.2 bus2=BUSLVAGO579.1.2 Linecode=TRPX2/0AAAC length=9.6543 units=m !1ph_basekV=0.12 Group=NULL
new line.LV1FAGO5 bus1=BUSLVAGO616.1.2 bus2=BUSLVAGO579.1.2 Linecode=TRPX2/0AAAC length=19.7348 units=m !1ph_basekV=0.12 Group=NULL
new line.LV1FAGO6 bus1=BUSLVAGO581.1.2 bus2=BUSLVAGO580.1.2 Linecode=TRPX2/0AAAC length=44.4976 units=m !1ph_basekV=0.12 Group=NULL
new line.LV1FAGO7 bus1=BUSLVAGO610.1.2 bus2=BUSLVAGO580.1.2 Linecode=TRPX2/0AAAC length=19.6864 units=m !1ph_basekV=0.12 Group=NULL
new line.LV1FAGO8 bus1=BUSLVAGO619.1.2 bus2=BUSLVAGO580.1.2 Geometry=1FLV2/0AAAC2/0AAAC length=9.4765 units=m !1ph_basekV=0.12 Group=NULL
new line.LV1FAGO9 bus1=BUSLVAGO624.1.2 bus2=BUSLVAGO580.1.2 Linecode=TRPX2/0AAAC length=1.5888 units=m !1ph_basekV=0.12 Group=NULL
new line.LV1FAGO10 bus1=BUSLVAGO642.1.2 bus2=BUSLVAGO580.1.2 Linecode=TRPX2/0AAAC length=19.6865 units=m !1ph_basekV=0.12 Group=NULL
new line.LV1FAGO11 bus1=BUSLVAGO582.1.2 bus2=BUSLVAGO581.1.2 Linecode=TRPX2/0AAAC length=38.5152 units=m !1ph_basekV=0.12 Group=NULL
new line.LV1FAGO12 bus1=BUSLVAGO617.1.2 bus2=BUSLVAGO581.1.2 Linecode=TRPX2/0AAAC length=8.0542 units=m !1ph_basekV=0.12 Group=NULL
new line.LV1FAGO13 bus1=BUSLVAGO618.1.2 bus2=BUSLVAGO581.1.2 Linecode=TRPX2/0AAAC length=2.3204 units=m !1ph_basekV=0.12 Group=NULL
new line.LV1FAGO14 bus1=BUSLVAGO620.1.2 bus2=BUSLVAGO581.1.2 Linecode=TRPX2/0AAAC length=16.1925 units=m !1ph_basekV=0.12 Group=NULL
new line.LV1FAGO15 bus1=BUSLVAGO621.1.2 bus2=BUSLVAGO581.1.2 Linecode=TRPX2/0AAAC length=22.7351 units=m !1ph_basekV=0.12 Group=NULL
new line.LV1FAGO16 bus1=BUSLVAGO625.1.2 bus2=BUSLVAGO581.1.2 Linecode=TRPX2/0AAAC length=8.0542 units=m !1ph_basekV=0.12 Group=NULL
new line.LV1FAGO17 bus1=BUSLVAGO583.1.2 bus2=BUSLVAGO582.1.2 Linecode=TRPX2/0AAAC length=34.3343 units=m !1ph_basekV=0.12 Group=NULL
new line.LV1FAGO18 bus1=BUSLVAGO609.1.2 bus2=BUSLVAGO582.1.2 Geometry=1FLV2/0AAAC2/0AAAC length=13.9933 units=m !1ph_basekV=0.12 Group=NULL
new line.LV1FAGO19 bus1=BUSLVAGO615.1.2 bus2=BUSLVAGO582.1.2 Linecode=TRPX2/0AAAC length=8.3619 units=m !1ph_basekV=0.12 Group=NULL
new line.LV1FAGO20 bus1=BUSLVAGO638.1.2 bus2=BUSLVAGO582.1.2 Linecode=TRPX2/0AAAC length=13.9933 units=m !1ph_basekV=0.12 Group=NULL
new line.LV1FAGO21 bus1=BUSLVAGO653.1.2 bus2=BUSLVAGO582.1.2 Linecode=TRPX2/0AAAC length=12.3474 units=m !1ph_basekV=0.12 Group=NULL
new line.LV1FAGO22 bus1=BUSLVAGO608.1.2 bus2=BUSLVAGO583.1.2 Linecode=TRPX2/0AAAC length=18.1477 units=m !1ph_basekV=0.12 Group=NULL
new line.LV1FAGO23 bus1=BUSLVAGO623.1.2 bus2=BUSLVAGO583.1.2 Linecode=TRPX2/0AAAC length=8.8679 units=m !1ph_basekV=0.12 Group=NULL
new line.LV1FAGO24 bus1=BUSLVAGO631.1.2 bus2=BUSLVAGO583.1.2 Linecode=TRPX2/0AAAC length=16.6823 units=m !1ph_basekV=0.12 Group=NULL
new line.LV1FAGO25 bus1=BUSLVAGO632.1.2 bus2=BUSLVAGO583.1.2 Linecode=TRPX2/0AAAC length=12.4613 units=m !1ph_basekV=0.12 Group=NULL
new line.LV1FAGO26 bus1=BUSLVAGO633.1.2 bus2=BUSLVAGO583.1.2 Linecode=TRPX2/0AAAC length=14.1440 units=m !1ph_basekV=0.12 Group=NULL
new line.LV1FAGO27 bus1=BUSLVAGO634.1.2 bus2=BUSLVAGO583.1.2 Linecode=TRPX2/0AAAC length=12.4614 units=m !1ph_basekV=0.12 Group=NULL
new line.LV1FAGO28 bus1=BUSLVAGO637.1.2 bus2=BUSLVAGO583.1.2 Linecode=TRPX2/0AAAC length=12.4613 units=m !1ph_basekV=0.12 Group=NULL
new line.LV1FAGO29 bus1=BUSLVAGO585.1.2 bus2=BUSLVAGO584.1.2 Linecode=TRPX2/0AAAC length=67.5727 units=m !1ph_basekV=0.12 Group=NULL
new line.LV1FAGO30 bus1=BUSLVAGO601.1.2 bus2=BUSLVAGO584.1.2 Linecode=TRPX2/0AAAC length=33.6759 units=m !1ph_basekV=0.12 Group=NULL
new line.LV1FAGO31 bus1=BUSLVAGO603.1.2 bus2=BUSLVAGO584.1.2 Linecode=TRPX2/0AAAC length=33.6759 units=m !1ph_basekV=0.12 Group=NULL
new line.LV1FAGO32 bus1=BUSLVAGO640.1.2 bus2=BUSLVAGO584.1.2 Linecode=TRPX2/0AAAC length=8.0379 units=m !1ph_basekV=0.12 Group=NULL
new line.LV1FAGO33 bus1=BUSLVAGO586.1.2 bus2=BUSLVAGO585.1.2 Linecode=TRPX2/0AAAC length=37.0929 units=m !1ph_basekV=0.12 Group=NULL
new line.LV1FAGO34 bus1=BUSLVAGO600.1.2 bus2=BUSLVAGO585.1.2 Linecode=TRPX2/0AAAC length=18.5986 units=m !1ph_basekV=0.12 Group=NULL
new line.LV1FAGO35 bus1=BUSLVAGO630.1.2 bus2=BUSLVAGO585.1.2 Linecode=TRPX2/0AAAC length=18.2559 units=m !1ph_basekV=0.12 Group=NULL
new line.LV1FAGO36 bus1=BUSLVAGO635.1.2 bus2=BUSLVAGO585.1.2 Geometry=1FLV2/0AAAC2/0AAAC length=18.2558 units=m !1ph_basekV=0.12 Group=NULL
new line.LV1FAGO37 bus1=BUSLVAGO599.1.2 bus2=BUSLVAGO586.1.2 Linecode=TRPX2/0AAAC length=0.9814 units=m !1ph_basekV=0.12 Group=NULL
new line.LV1FAGO38 bus1=BUSLVAGO587.1.2 bus2=BUSLVAGO210.1.2 Linecode=TRPX2/0AAAC length=2.4232 units=m !1ph_basekV=0.12 Group=NULL
new line.LV1FAGO39 bus1=BUSLVAGO588.1.2 bus2=BUSLVAGO587.1.2 Linecode=TRPX2/0AAAC length=43.1575 units=m !1ph_basekV=0.12 Group=NULL
new line.LV1FAGO40 bus1=BUSLVAGO589.1.2 bus2=BUSLVAGO587.1.2 Linecode=TRPX2/0AAAC length=47.2721 units=m !1ph_basekV=0.12 Group=NULL
new line.LV1FAGO41 bus1=BUSLVAGO598.1.2 bus2=BUSLVAGO587.1.2 Linecode=TRPX2/0AAAC length=13.7231 units=m !1ph_basekV=0.12 Group=NULL
new line.LV1FAGO42 bus1=BUSLVAGO641.1.2 bus2=BUSLVAGO587.1.2 Linecode=TRPX2/0AAAC length=16.0966 units=m !1ph_basekV=0.12 Group=NULL
new line.LV1FAGO43 bus1=BUSLVAGO590.1.2 bus2=BUSLVAGO589.1.2 Linecode=TRPX2/0AAAC length=24.8789 units=m !1ph_basekV=0.12 Group=NULL
new line.LV1FAGO44 bus1=BUSLVAGO645.1.2 bus2=BUSLVAGO589.1.2 Geometry=1FLV2/0AAAC2/0AAAC length=11.6219 units=m !1ph_basekV=0.12 Group=NULL
new line.LV1FAGO45 bus1=BUSLVAGO591.1.2 bus2=BUSLVAGO590.1.2 Linecode=TRPX2/0AAAC length=23.6883 units=m !1ph_basekV=0.12 Group=NULL
new line.LV1FAGO46 bus1=BUSLVAGO593.1.2 bus2=BUSLVAGO590.1.2 Linecode=TRPX2/0AAAC length=27.1394 units=m !1ph_basekV=0.12 Group=NULL
new line.LV1FAGO47 bus1=BUSLVAGO596.1.2 bus2=BUSLVAGO590.1.2 Linecode=TRPX2/0AAAC length=14.8535 units=m !1ph_basekV=0.12 Group=NULL
new line.LV1FAGO48 bus1=BUSLVAGO597.1.2 bus2=BUSLVAGO590.1.2 Geometry=1FLV2/0AAAC2/0AAAC length=12.8213 units=m !1ph_basekV=0.12 Group=NULL
new line.LV1FAGO49 bus1=BUSLVAGO622.1.2 bus2=BUSLVAGO590.1.2 Linecode=TRPX2/0AAAC length=12.7961 units=m !1ph_basekV=0.12 Group=NULL
new line.LV1FAGO50 bus1=BUSLVAGO639.1.2 bus2=BUSLVAGO590.1.2 Geometry=1FLV2/0AAAC2/0AAAC length=13.2678 units=m !1ph_basekV=0.12 Group=NULL
new line.LV1FAGO51 bus1=BUSLVAGO643.1.2 bus2=BUSLVAGO590.1.2 Linecode=TRPX2/0AAAC length=14.7127 units=m !1ph_basekV=0.12 Group=NULL
new line.LV1FAGO52 bus1=BUSLVAGO644.1.2 bus2=BUSLVAGO590.1.2 Linecode=TRPX2/0AAAC length=8.9017 units=m !1ph_basekV=0.12 Group=NULL
new line.LV1FAGO53 bus1=BUSLVAGO647.1.2 bus2=BUSLVAGO590.1.2 Geometry=1FLV2/0AAAC2/0AAAC length=14.3619 units=m !1ph_basekV=0.12 Group=NULL
new line.LV1FAGO54 bus1=BUSLVAGO651.1.2 bus2=BUSLVAGO590.1.2 Linecode=TRPX2/0AAAC length=8.9017 units=m !1ph_basekV=0.12 Group=NULL
new line.LV1FAGO55 bus1=BUSLVAGO592.1.2 bus2=BUSLVAGO591.1.2 Linecode=TRPX2/0AAAC length=23.2959 units=m !1ph_basekV=0.12 Group=NULL
new line.LV1FAGO56 bus1=BUSLVAGO604.1.2 bus2=BUSLVAGO591.1.2 Geometry=1FLV2/0AAAC2/0AAAC length=10.6554 units=m !1ph_basekV=0.12 Group=NULL
new line.LV1FAGO57 bus1=BUSLVAGO605.1.2 bus2=BUSLVAGO591.1.2 Linecode=TRPX2/0AAAC length=6.5604 units=m !1ph_basekV=0.12 Group=NULL
new line.LV1FAGO58 bus1=BUSLVAGO606.1.2 bus2=BUSLVAGO591.1.2 Linecode=TRPX2/0AAAC length=2.5821 units=m !1ph_basekV=0.12 Group=NULL
new line.LV1FAGO59 bus1=BUSLVAGO607.1.2 bus2=BUSLVAGO591.1.2 Linecode=TRPX2/0AAAC length=2.8666 units=m !1ph_basekV=0.12 Group=NULL
new line.LV1FAGO60 bus1=BUSLVAGO626.1.2 bus2=BUSLVAGO591.1.2 Linecode=TRPX2/0AAAC length=11.5512 units=m !1ph_basekV=0.12 Group=NULL
new line.LV1FAGO61 bus1=BUSLVAGO628.1.2 bus2=BUSLVAGO591.1.2 Linecode=TRPX2/0AAAC length=11.9923 units=m !1ph_basekV=0.12 Group=NULL
new line.LV1FAGO62 bus1=BUSLVAGO646.1.2 bus2=BUSLVAGO591.1.2 Linecode=TRPX2/0AAAC length=6.7089 units=m !1ph_basekV=0.12 Group=NULL
new line.LV1FAGO63 bus1=BUSLVAGO613.1.2 bus2=BUSLVAGO592.1.2 Linecode=TRPX2/0AAAC length=5.3424 units=m !1ph_basekV=0.12 Group=NULL
new line.LV1FAGO64 bus1=BUSLVAGO614.1.2 bus2=BUSLVAGO592.1.2 Linecode=TRPX2/0AAAC length=10.4187 units=m !1ph_basekV=0.12 Group=NULL
new line.LV1FAGO65 bus1=BUSLVAGO627.1.2 bus2=BUSLVAGO592.1.2 Linecode=TRPX2/0AAAC length=1.4818 units=m !1ph_basekV=0.12 Group=NULL
new line.LV1FAGO66 bus1=BUSLVAGO636.1.2 bus2=BUSLVAGO592.1.2 Linecode=TRPX2/0AAAC length=0.7409 units=m !1ph_basekV=0.12 Group=NULL
new line.LV1FAGO67 bus1=BUSLVAGO650.1.2 bus2=BUSLVAGO592.1.2 Linecode=TRPX2/0AAAC length=1.4817 units=m !1ph_basekV=0.12 Group=NULL
new line.LV1FAGO68 bus1=BUSLVAGO594.1.2 bus2=BUSLVAGO593.1.2 Linecode=TRPX2/0AAAC length=27.5677 units=m !1ph_basekV=0.12 Group=NULL
new line.LV1FAGO69 bus1=BUSLVAGO602.1.2 bus2=BUSLVAGO593.1.2 Linecode=TRPX2/0AAAC length=10.2762 units=m !1ph_basekV=0.12 Group=NULL
new line.LV1FAGO70 bus1=BUSLVAGO612.1.2 bus2=BUSLVAGO593.1.2 Linecode=TRPX2/0AAAC length=5.2099 units=m !1ph_basekV=0.12 Group=NULL
new line.LV1FAGO71 bus1=BUSLVAGO648.1.2 bus2=BUSLVAGO593.1.2 Geometry=1FLV2/0AAAC2/0AAAC length=5.2100 units=m !1ph_basekV=0.12 Group=NULL
new line.LV1FAGO72 bus1=BUSLVAGO649.1.2 bus2=BUSLVAGO593.1.2 Linecode=TRPX2/0AAAC length=10.2762 units=m !1ph_basekV=0.12 Group=NULL
new line.LV1FAGO73 bus1=BUSLVAGO595.1.2 bus2=BUSLVAGO594.1.2 Linecode=TRPX2/0AAAC length=28.7972 units=m !1ph_basekV=0.12 Group=NULL
new line.LV1FAGO74 bus1=BUSLVAGO629.1.2 bus2=BUSLVAGO594.1.2 Linecode=TRPX2/0AAAC length=11.8533 units=m !1ph_basekV=0.12 Group=NULL
new line.LV1FAGO75 bus1=BUSLVAGO652.1.2 bus2=BUSLVAGO594.1.2 Linecode=TRPX2/0AAAC length=13.3656 units=m !1ph_basekV=0.12 Group=NULL
new line.LV1FAGO76 bus1=BUSLVAGO627.1.2 bus2=BUSLVAGO636.1.2 Linecode=TRPX2/0AAAC length=0.7409 units=m !1ph_basekV=0.12 Group=NULL
new line.LV1FAGO77 bus1=BUSLVAGO654.1.2 bus2=BUSLVAGO157.1.2 Linecode=TRPX2/0AAAC length=2.4126 units=m !1ph_basekV=0.12 Group=NULL
new line.LV1FAGO78 bus1=BUSLVAGO656.1.2 bus2=BUSLVAGO654.1.2 Linecode=TRPX2/0AAAC length=24.2472 units=m !1ph_basekV=0.12 Group=NULL
new line.LV1FAGO79 bus1=BUSLVAGO1170.1.2 bus2=BUSLVAGO654.1.2 Linecode=TRPX2/0AAAC length=11.2887 units=m !1ph_basekV=0.12 Group=NULL
new line.LV1FAGO80 bus1=BUSLVAGO1398.1.2 bus2=BUSLVAGO654.1.2 Linecode=TRPX2/0AAAC length=5.8058 units=m !1ph_basekV=0.12 Group=NULL
new line.LV1FAGO81 bus1=BUSLVAGO655.1.2 bus2=BUSLVAGO656.1.2 Linecode=TRPX2/0AAAC length=5.7038 units=m !1ph_basekV=0.12 Group=NULL
new line.LV1FAGO82 bus1=BUSLVAGO683.1.2 bus2=BUSLVAGO655.1.2 Linecode=TRPX2/0AAAC length=39.8526 units=m !1ph_basekV=0.12 Group=NULL
new line.LV1FAGO83 bus1=BUSLVAGO1343.1.2 bus2=BUSLVAGO655.1.2 Linecode=TRPX2/0AAAC length=3.1957 units=m !1ph_basekV=0.12 Group=NULL
new line.LV1FAGO84 bus1=BUSLVAGO1404.1.2 bus2=BUSLVAGO655.1.2 Linecode=TRPX2/0AAAC length=3.1957 units=m !1ph_basekV=0.12 Group=NULL
new line.LV1FAGO85 bus1=BUSLVAGO657.1.2 bus2=BUSLVAGO656.1.2 Linecode=TRPX2/0AAAC length=9.4747 units=m !1ph_basekV=0.12 Group=NULL
new line.LV1FAGO86 bus1=BUSLVAGO1123.1.2 bus2=BUSLVAGO656.1.2 Linecode=TRPX2/0AAAC length=30.9984 units=m !1ph_basekV=0.12 Group=NULL
new line.LV1FAGO87 bus1=BUSLVAGO1208.1.2 bus2=BUSLVAGO657.1.2 Linecode=TRPX2/0AAAC length=4.7080 units=m !1ph_basekV=0.12 Group=NULL
new line.LV1FAGO88 bus1=BUSLVAGO658.1.2 bus2=BUSLVAGO659.1.2 Linecode=TRPX2/0AAAC length=44.5666 units=m !1ph_basekV=0.12 Group=NULL
new line.LV1FAGO89 bus1=BUSLVAGO1164.1.2 bus2=BUSLVAGO658.1.2 Linecode=TRPX2/0AAAC length=5.6562 units=m !1ph_basekV=0.12 Group=NULL
new line.LV1FAGO90 bus1=BUSLVAGO659.1.2 bus2=BUSLVAGO660.1.2 Linecode=TRPX2/0AAAC length=3.4333 units=m !1ph_basekV=0.12 Group=NULL
new line.LV1FAGO91 bus1=BUSLVAGO661.1.2 bus2=BUSLVAGO659.1.2 Linecode=TRPX2/0AAAC length=14.5266 units=m !1ph_basekV=0.12 Group=NULL
new line.LV1FAGO92 bus1=BUSLVAGO662.1.2 bus2=BUSLVAGO659.1.2 Linecode=TRPX2/0AAAC length=11.7971 units=m !1ph_basekV=0.12 Group=NULL
new line.LV1FAGO93 bus1=BUSLVAGO959.1.2 bus2=BUSLVAGO659.1.2 Linecode=TRPX2/0AAAC length=8.5487 units=m !1ph_basekV=0.12 Group=NULL
new line.LV1FAGO94 bus1=BUSLVAGO660.1.2 bus2=BUSLVAGO174.1.2 Linecode=TRPX2/0AAAC length=2.2621 units=m !1ph_basekV=0.12 Group=NULL
new line.LV1FAGO95 bus1=BUSLVAGO823.1.2 bus2=BUSLVAGO660.1.2 Linecode=TRPX2/0AAAC length=20.3754 units=m !1ph_basekV=0.12 Group=NULL
new line.LV1FAGO96 bus1=BUSLVAGO663.1.2 bus2=BUSLVAGO662.1.2 Linecode=TRPX2/0AAAC length=18.0645 units=m !1ph_basekV=0.12 Group=NULL
new line.LV1FAGO97 bus1=BUSLVAGO1114.1.2 bus2=BUSLVAGO663.1.2 Linecode=TRPX2/0AAAC length=5.2608 units=m !1ph_basekV=0.12 Group=NULL
new line.LV1FAGO98 bus1=BUSLVAGO1216.1.2 bus2=BUSLVAGO663.1.2 Linecode=TRPX2/0AAAC length=5.2608 units=m !1ph_basekV=0.12 Group=NULL
new line.LV1FAGO99 bus1=BUSLVAGO1259.1.2 bus2=BUSLVAGO663.1.2 Linecode=TRPX2/0AAAC length=10.2199 units=m !1ph_basekV=0.12 Group=NULL
new line.LV1FAGO100 bus1=BUSLVAGO1276.1.2 bus2=BUSLVAGO663.1.2 Linecode=TRPX2/0AAAC length=24.2841 units=m !1ph_basekV=0.12 Group=NULL
new line.LV1FAGO101 bus1=BUSLVAGO664.1.2 bus2=BUSLVAGO140.1.2 Linecode=TRPX2/0AAAC length=2.4189 units=m !1ph_basekV=0.12 Group=NULL
new line.LV1FAGO102 bus1=BUSLVAGO665.1.2 bus2=BUSLVAGO664.1.2 Linecode=TRPX2/0AAAC length=28.2170 units=m !1ph_basekV=0.12 Group=NULL
new line.LV1FAGO103 bus1=BUSLVAGO666.1.2 bus2=BUSLVAGO664.1.2 Linecode=TRPX2/0AAAC length=41.0645 units=m !1ph_basekV=0.12 Group=NULL
new line.LV1FAGO104 bus1=BUSLVAGO1018.1.2 bus2=BUSLVAGO664.1.2 Linecode=TRPX2/0AAAC length=13.3672 units=m !1ph_basekV=0.12 Group=NULL
new line.LV1FAGO105 bus1=BUSLVAGO1059.1.2 bus2=BUSLVAGO664.1.2 Linecode=TRPX2/0AAAC length=5.8313 units=m !1ph_basekV=0.12 Group=NULL
new line.LV1FAGO106 bus1=BUSLVAGO1171.1.2 bus2=BUSLVAGO664.1.2 Linecode=TRPX2/0AAAC length=5.8313 units=m !1ph_basekV=0.12 Group=NULL
new line.LV1FAGO107 bus1=BUSLVAGO1194.1.2 bus2=BUSLVAGO664.1.2 Linecode=TRPX2/0AAAC length=18.8484 units=m !1ph_basekV=0.12 Group=NULL
new line.LV1FAGO108 bus1=BUSLVAGO1424.1.2 bus2=BUSLVAGO665.1.2 Linecode=TRPX2/0AAAC length=29.1175 units=m !1ph_basekV=0.12 Group=NULL
new line.LV1FAGO109 bus1=BUSLVAGO998.1.2 bus2=BUSLVAGO666.1.2 Linecode=TRPX2/0AAAC length=6.9389 units=m !1ph_basekV=0.12 Group=NULL
new line.LV1FAGO110 bus1=BUSLVAGO1030.1.2 bus2=BUSLVAGO666.1.2 Linecode=TRPX2/0AAAC length=18.6171 units=m !1ph_basekV=0.12 Group=NULL
new line.LV1FAGO111 bus1=BUSLVAGO1090.1.2 bus2=BUSLVAGO666.1.2 Linecode=TRPX2/0AAAC length=6.2879 units=m !1ph_basekV=0.12 Group=NULL
new line.LV1FAGO112 bus1=BUSLVAGO1256.1.2 bus2=BUSLVAGO666.1.2 Linecode=TRPX2/0AAAC length=18.6170 units=m !1ph_basekV=0.12 Group=NULL
new line.LV1FAGO113 bus1=BUSLVAGO1369.1.2 bus2=BUSLVAGO666.1.2 Linecode=TRPX2/0AAAC length=6.2879 units=m !1ph_basekV=0.12 Group=NULL
new line.LV1FAGO114 bus1=BUSLVAGO1384.1.2 bus2=BUSLVAGO666.1.2 Linecode=TRPX2/0AAAC length=6.2880 units=m !1ph_basekV=0.12 Group=NULL
new line.LV1FAGO115 bus1=BUSLVAGO1385.1.2 bus2=BUSLVAGO666.1.2 Linecode=TRPX2/0AAAC length=3.1440 units=m !1ph_basekV=0.12 Group=NULL
new line.LV1FAGO116 bus1=BUSLVAGO1386.1.2 bus2=BUSLVAGO666.1.2 Linecode=TRPX2/0AAAC length=3.1440 units=m !1ph_basekV=0.12 Group=NULL
new line.LV1FAGO117 bus1=BUSLVAGO1387.1.2 bus2=BUSLVAGO666.1.2 Linecode=TRPX2/0AAAC length=6.2879 units=m !1ph_basekV=0.12 Group=NULL
new line.LV1FAGO118 bus1=BUSLVAGO667.1.2 bus2=BUSLVAGO139.1.2 Linecode=TRPX2/0AAAC length=2.3208 units=m !1ph_basekV=0.12 Group=NULL
new line.LV1FAGO119 bus1=BUSLVAGO668.1.2 bus2=BUSLVAGO667.1.2 Linecode=TRPX2/0AAAC length=42.8588 units=m !1ph_basekV=0.12 Group=NULL
new line.LV1FAGO120 bus1=BUSLVAGO1060.1.2 bus2=BUSLVAGO139.1.2 Linecode=TRPX2/0AAAC length=2.8711 units=m !1ph_basekV=0.12 Group=NULL
new line.LV1FAGO121 bus1=BUSLVAGO669.1.2 bus2=BUSLVAGO668.1.2 Linecode=TRPX2/0AAAC length=38.6485 units=m !1ph_basekV=0.12 Group=NULL
new line.LV1FAGO122 bus1=BUSLVAGO1362.1.2 bus2=BUSLVAGO668.1.2 Linecode=TRPX2/0AAAC length=7.2434 units=m !1ph_basekV=0.12 Group=NULL
new line.LV1FAGO123 bus1=BUSLVAGO1395.1.2 bus2=BUSLVAGO668.1.2 Linecode=TRPX2/0AAAC length=13.0024 units=m !1ph_basekV=0.12 Group=NULL
new line.LV1FAGO124 bus1=BUSLVAGO1099.1.2 bus2=BUSLVAGO669.1.2 Linecode=TRPX2/0AAAC length=15.9733 units=m !1ph_basekV=0.12 Group=NULL
new line.LV1FAGO125 bus1=BUSLVAGO1100.1.2 bus2=BUSLVAGO669.1.2 Linecode=TRPX2/0AAAC length=17.6209 units=m !1ph_basekV=0.12 Group=NULL
new line.LV1FAGO126 bus1=BUSLVAGO1128.1.2 bus2=BUSLVAGO669.1.2 Linecode=TRPX2/0AAAC length=4.4345 units=m !1ph_basekV=0.12 Group=NULL
new line.LV1FAGO127 bus1=BUSLVAGO1142.1.2 bus2=BUSLVAGO669.1.2 Geometry=1FLV2/0AAAC2/0AAAC length=17.6226 units=m !1ph_basekV=0.12 Group=NULL
new line.LV1FAGO128 bus1=BUSLVAGO1151.1.2 bus2=BUSLVAGO669.1.2 Linecode=TRPX2/0AAAC length=12.2603 units=m !1ph_basekV=0.12 Group=NULL
new line.LV1FAGO129 bus1=BUSLVAGO1162.1.2 bus2=BUSLVAGO669.1.2 Linecode=TRPX2/0AAAC length=17.6207 units=m !1ph_basekV=0.12 Group=NULL
new line.LV1FAGO130 bus1=BUSLVAGO1394.1.2 bus2=BUSLVAGO669.1.2 Linecode=TRPX2/0AAAC length=12.2605 units=m !1ph_basekV=0.12 Group=NULL
new line.LV1FAGO131 bus1=BUSLVAGO1405.1.2 bus2=BUSLVAGO669.1.2 Linecode=TRPX2/0AAAC length=4.4339 units=m !1ph_basekV=0.12 Group=NULL
new line.LV1FAGO132 bus1=BUSLVAGO1426.1.2 bus2=BUSLVAGO669.1.2 Linecode=TRPX2/0AAAC length=15.9705 units=m !1ph_basekV=0.12 Group=NULL
new line.LV1FAGO133 bus1=BUSLVAGO670.1.2 bus2=BUSLVAGO151.1.2 Linecode=TRPX2/0AAAC length=2.4382 units=m !1ph_basekV=0.12 Group=NULL
new line.LV1FAGO134 bus1=BUSLVAGO671.1.2 bus2=BUSLVAGO670.1.2 Linecode=TRPX2/0AAAC length=34.9718 units=m !1ph_basekV=0.12 Group=NULL
new line.LV1FAGO135 bus1=BUSLVAGO674.1.2 bus2=BUSLVAGO670.1.2 Linecode=TRPX2/0AAAC length=38.4406 units=m !1ph_basekV=0.12 Group=NULL
new line.LV1FAGO136 bus1=BUSLVAGO1089.1.2 bus2=BUSLVAGO670.1.2 Linecode=TRPX2/0AAAC length=10.9073 units=m !1ph_basekV=0.12 Group=NULL
new line.LV1FAGO137 bus1=BUSLVAGO1316.1.2 bus2=BUSLVAGO151.1.2 Linecode=TRPX2/0AAAC length=7.1776 units=m !1ph_basekV=0.12 Group=NULL
new line.LV1FAGO138 bus1=BUSLVAGO672.1.2 bus2=BUSLVAGO671.1.2 Linecode=TRPX2/0AAAC length=35.9412 units=m !1ph_basekV=0.12 Group=NULL
new line.LV1FAGO139 bus1=BUSLVAGO1273.1.2 bus2=BUSLVAGO671.1.2 Linecode=TRPX2/0AAAC length=11.5676 units=m !1ph_basekV=0.12 Group=NULL
new line.LV1FAGO140 bus1=BUSLVAGO1431.1.2 bus2=BUSLVAGO671.1.2 Linecode=TRPX2/0AAAC length=7.0372 units=m !1ph_basekV=0.12 Group=NULL
new line.LV1FAGO141 bus1=BUSLVAGO673.1.2 bus2=BUSLVAGO672.1.2 Linecode=TRPX2/0AAAC length=39.9165 units=m !1ph_basekV=0.12 Group=NULL
new line.LV1FAGO142 bus1=BUSLVAGO1152.1.2 bus2=BUSLVAGO672.1.2 Linecode=TRPX2/0AAAC length=10.5634 units=m !1ph_basekV=0.12 Group=NULL
new line.LV1FAGO143 bus1=BUSLVAGO1168.1.2 bus2=BUSLVAGO672.1.2 Linecode=TRPX2/0AAAC length=10.5397 units=m !1ph_basekV=0.12 Group=NULL
new line.LV1FAGO144 bus1=BUSLVAGO1264.1.2 bus2=BUSLVAGO672.1.2 Linecode=TRPX2/0AAAC length=10.4963 units=m !1ph_basekV=0.12 Group=NULL
new line.LV1FAGO145 bus1=BUSLVAGO1280.1.2 bus2=BUSLVAGO672.1.2 Linecode=TRPX2/0AAAC length=12.0758 units=m !1ph_basekV=0.12 Group=NULL
new line.LV1FAGO146 bus1=BUSLVAGO675.1.2 bus2=BUSLVAGO674.1.2 Linecode=TRPX2/0AAAC length=39.5030 units=m !1ph_basekV=0.12 Group=NULL
new line.LV1FAGO147 bus1=BUSLVAGO1341.1.2 bus2=BUSLVAGO674.1.2 Linecode=TRPX2/0AAAC length=20.6656 units=m !1ph_basekV=0.12 Group=NULL
new line.LV1FAGO148 bus1=BUSLVAGO1360.1.2 bus2=BUSLVAGO675.1.2 Linecode=TRPX2/0AAAC length=3.8642 units=m !1ph_basekV=0.12 Group=NULL
new line.LV1FAGO149 bus1=BUSLVAGO1372.1.2 bus2=BUSLVAGO675.1.2 Linecode=TRPX2/0AAAC length=3.8597 units=m !1ph_basekV=0.12 Group=NULL
new line.LV1FAGO150 bus1=BUSLVAGO676.1.2 bus2=BUSLVAGO138.1.2 Linecode=TRPX2/0AAAC length=2.4188 units=m !1ph_basekV=0.12 Group=NULL
new line.LV1FAGO151 bus1=BUSLVAGO677.1.2 bus2=BUSLVAGO676.1.2 Linecode=TRPX2/0AAAC length=47.5351 units=m !1ph_basekV=0.12 Group=NULL
new line.LV1FAGO152 bus1=BUSLVAGO678.1.2 bus2=BUSLVAGO676.1.2 Linecode=TRPX2/0AAAC length=70.0095 units=m !1ph_basekV=0.12 Group=NULL
new line.LV1FAGO153 bus1=BUSLVAGO1189.1.2 bus2=BUSLVAGO676.1.2 Linecode=TRPX2/0AAAC length=17.9298 units=m !1ph_basekV=0.12 Group=NULL
new line.LV1FAGO154 bus1=BUSLVAGO1214.1.2 bus2=BUSLVAGO676.1.2 Linecode=TRPX2/0AAAC length=17.9298 units=m !1ph_basekV=0.12 Group=NULL
new line.LV1FAGO155 bus1=BUSLVAGO868.1.2 bus2=BUSLVAGO138.1.2 Linecode=TRPX2/0AAAC length=3.7235 units=m !1ph_basekV=0.12 Group=NULL
new line.LV1FAGO156 bus1=BUSLVAGO869.1.2 bus2=BUSLVAGO138.1.2 Linecode=TRPX2/0AAAC length=33.2779 units=m !1ph_basekV=0.12 Group=NULL
new line.LV1FAGO157 bus1=BUSLVAGO1288.1.2 bus2=BUSLVAGO138.1.2 Geometry=1FLV2/0AAAC2/0AAAC length=33.2779 units=m !1ph_basekV=0.12 Group=NULL
new line.LV1FAGO158 bus1=BUSLVAGO1354.1.2 bus2=BUSLVAGO677.1.2 Linecode=TRPX2/0AAAC length=21.4544 units=m !1ph_basekV=0.12 Group=NULL
new line.LV1FAGO159 bus1=BUSLVAGO1388.1.2 bus2=BUSLVAGO677.1.2 Linecode=TRPX2/0AAAC length=21.4544 units=m !1ph_basekV=0.12 Group=NULL
new line.LV1FAGO160 bus1=BUSLVAGO1432.1.2 bus2=BUSLVAGO677.1.2 Linecode=TRPX2/0AAAC length=5.5626 units=m !1ph_basekV=0.12 Group=NULL
new line.LV1FAGO161 bus1=BUSLVAGO679.1.2 bus2=BUSLVAGO678.1.2 Linecode=TRPX2/0AAAC length=32.6600 units=m !1ph_basekV=0.12 Group=NULL
new line.LV1FAGO162 bus1=BUSLVAGO1198.1.2 bus2=BUSLVAGO678.1.2 Linecode=TRPX2/0AAAC length=16.3117 units=m !1ph_basekV=0.12 Group=NULL
new line.LV1FAGO163 bus1=BUSLVAGO1222.1.2 bus2=BUSLVAGO678.1.2 Linecode=TRPX2/0AAAC length=16.3116 units=m !1ph_basekV=0.12 Group=NULL
new line.LV1FAGO164 bus1=BUSLVAGO1246.1.2 bus2=BUSLVAGO678.1.2 Linecode=TRPX2/0AAAC length=8.1559 units=m !1ph_basekV=0.12 Group=NULL
new line.LV1FAGO165 bus1=BUSLVAGO1261.1.2 bus2=BUSLVAGO678.1.2 Linecode=TRPX2/0AAAC length=8.1558 units=m !1ph_basekV=0.12 Group=NULL
new line.LV1FAGO166 bus1=BUSLVAGO1269.1.2 bus2=BUSLVAGO678.1.2 Linecode=TRPX2/0AAAC length=16.3115 units=m !1ph_basekV=0.12 Group=NULL
new line.LV1FAGO167 bus1=BUSLVAGO1271.1.2 bus2=BUSLVAGO678.1.2 Linecode=TRPX2/0AAAC length=8.1558 units=m !1ph_basekV=0.12 Group=NULL
new line.LV1FAGO168 bus1=BUSLVAGO680.1.2 bus2=BUSLVAGO679.1.2 Linecode=TRPX2/0AAAC length=40.3917 units=m !1ph_basekV=0.12 Group=NULL
new line.LV1FAGO169 bus1=BUSLVAGO1096.1.2 bus2=BUSLVAGO679.1.2 Linecode=TRPX2/0AAAC length=24.9749 units=m !1ph_basekV=0.12 Group=NULL
new line.LV1FAGO170 bus1=BUSLVAGO681.1.2 bus2=BUSLVAGO680.1.2 Linecode=TRPX2/0AAAC length=40.3358 units=m !1ph_basekV=0.12 Group=NULL
new line.LV1FAGO171 bus1=BUSLVAGO682.1.2 bus2=BUSLVAGO681.1.2 Linecode=TRPX2/0AAAC length=39.2472 units=m !1ph_basekV=0.12 Group=NULL
new line.LV1FAGO172 bus1=BUSLVAGO1087.1.2 bus2=BUSLVAGO681.1.2 Linecode=TRPX2/0AAAC length=9.1669 units=m !1ph_basekV=0.12 Group=NULL
new line.LV1FAGO173 bus1=BUSLVAGO857.1.2 bus2=BUSLVAGO683.1.2 Linecode=TRPX2/0AAAC length=32.4141 units=m !1ph_basekV=0.12 Group=NULL
new line.LV1FAGO174 bus1=BUSLVAGO885.1.2 bus2=BUSLVAGO683.1.2 Linecode=TRPX2/0AAAC length=11.3062 units=m !1ph_basekV=0.12 Group=NULL
new line.LV1FAGO175 bus1=BUSLVAGO1080.1.2 bus2=BUSLVAGO683.1.2 Linecode=TRPX2/0AAAC length=9.0320 units=m !1ph_basekV=0.12 Group=NULL
new line.LV1FAGO176 bus1=BUSLVAGO1418.1.2 bus2=BUSLVAGO683.1.2 Linecode=TRPX2/0AAAC length=18.5354 units=m !1ph_basekV=0.12 Group=NULL
new line.LV1FAGO177 bus1=BUSLVAGO684.1.2 bus2=BUSLVAGO131.1.2 Linecode=TRPX2/0AAAC length=2.2087 units=m !1ph_basekV=0.12 Group=NULL
new line.LV1FAGO178 bus1=BUSLVAGO685.1.2 bus2=BUSLVAGO684.1.2 Linecode=TRPX2/0AAAC length=12.2148 units=m !1ph_basekV=0.12 Group=NULL
new line.LV1FAGO179 bus1=BUSLVAGO687.1.2 bus2=BUSLVAGO684.1.2 Linecode=TRPX2/0AAAC length=24.6855 units=m !1ph_basekV=0.12 Group=NULL
new line.LV1FAGO180 bus1=BUSLVAGO688.1.2 bus2=BUSLVAGO684.1.2 Linecode=TRPX2/0AAAC length=40.9956 units=m !1ph_basekV=0.12 Group=NULL
new line.LV1FAGO181 bus1=BUSLVAGO931.1.2 bus2=BUSLVAGO131.1.2 Geometry=1FLV2/0AAAC2/0AAAC length=5.5344 units=m !1ph_basekV=0.12 Group=NULL
new line.LV1FAGO182 bus1=BUSLVAGO686.1.2 bus2=BUSLVAGO685.1.2 Linecode=TRPX2/0AAAC length=14.7648 units=m !1ph_basekV=0.12 Group=NULL
new line.LV1FAGO183 bus1=BUSLVAGO929.1.2 bus2=BUSLVAGO685.1.2 Linecode=TRPX2/0AAAC length=11.0867 units=m !1ph_basekV=0.12 Group=NULL
new line.LV1FAGO184 bus1=BUSLVAGO1262.1.2 bus2=BUSLVAGO685.1.2 Linecode=TRPX2/0AAAC length=3.5275 units=m !1ph_basekV=0.12 Group=NULL
new line.LV1FAGO185 bus1=BUSLVAGO928.1.2 bus2=BUSLVAGO686.1.2 Linecode=TRPX2/0AAAC length=12.5990 units=m !1ph_basekV=0.12 Group=NULL
new line.LV1FAGO186 bus1=BUSLVAGO1126.1.2 bus2=BUSLVAGO686.1.2 Linecode=TRPX2/0AAAC length=15.7645 units=m !1ph_basekV=0.12 Group=NULL
new line.LV1FAGO187 bus1=BUSLVAGO1127.1.2 bus2=BUSLVAGO686.1.2 Linecode=TRPX2/0AAAC length=12.5990 units=m !1ph_basekV=0.12 Group=NULL
new line.LV1FAGO188 bus1=BUSLVAGO1243.1.2 bus2=BUSLVAGO686.1.2 Linecode=TRPX2/0AAAC length=2.4993 units=m !1ph_basekV=0.12 Group=NULL
new line.LV1FAGO189 bus1=BUSLVAGO1281.1.2 bus2=BUSLVAGO686.1.2 Linecode=TRPX2/0AAAC length=15.7643 units=m !1ph_basekV=0.12 Group=NULL
new line.LV1FAGO190 bus1=BUSLVAGO1290.1.2 bus2=BUSLVAGO686.1.2 Linecode=TRPX2/0AAAC length=7.8822 units=m !1ph_basekV=0.12 Group=NULL
new line.LV1FAGO191 bus1=BUSLVAGO1299.1.2 bus2=BUSLVAGO686.1.2 Linecode=TRPX2/0AAAC length=7.8822 units=m !1ph_basekV=0.12 Group=NULL
new line.LV1FAGO192 bus1=BUSLVAGO1324.1.2 bus2=BUSLVAGO686.1.2 Linecode=TRPX2/0AAAC length=15.7643 units=m !1ph_basekV=0.12 Group=NULL
new line.LV1FAGO193 bus1=BUSLVAGO1443.1.2 bus2=BUSLVAGO686.1.2 Linecode=TRPX2/0AAAC length=31.1057 units=m !1ph_basekV=0.12 Group=NULL
new line.LV1FAGO194 bus1=BUSLVAGO1444.1.2 bus2=BUSLVAGO686.1.2 Linecode=TRPX2/0AAAC length=31.1117 units=m !1ph_basekV=0.12 Group=NULL
new line.LV1FAGO195 bus1=BUSLVAGO1445.1.2 bus2=BUSLVAGO686.1.2 Linecode=TRPX2/0AAAC length=15.5276 units=m !1ph_basekV=0.12 Group=NULL
new line.LV1FAGO196 bus1=BUSLVAGO1446.1.2 bus2=BUSLVAGO686.1.2 Linecode=TRPX2/0AAAC length=15.5321 units=m !1ph_basekV=0.12 Group=NULL
new line.LV1FAGO197 bus1=BUSLVAGO1447.1.2 bus2=BUSLVAGO686.1.2 Linecode=TRPX2/0AAAC length=31.3084 units=m !1ph_basekV=0.12 Group=NULL
new line.LV1FAGO198 bus1=BUSLVAGO1448.1.2 bus2=BUSLVAGO686.1.2 Linecode=TRPX2/0AAAC length=30.9248 units=m !1ph_basekV=0.12 Group=NULL
new line.LV1FAGO199 bus1=BUSLVAGO1449.1.2 bus2=BUSLVAGO686.1.2 Linecode=TRPX2/0AAAC length=31.0356 units=m !1ph_basekV=0.12 Group=NULL
new line.LV1FAGO200 bus1=BUSLVAGO1450.1.2 bus2=BUSLVAGO686.1.2 Linecode=TRPX2/0AAAC length=31.0440 units=m !1ph_basekV=0.12 Group=NULL
new line.LV1FAGO201 bus1=BUSLVAGO1451.1.2 bus2=BUSLVAGO686.1.2 Linecode=TRPX2/0AAAC length=15.5125 units=m !1ph_basekV=0.12 Group=NULL
new line.LV1FAGO202 bus1=BUSLVAGO895.1.2 bus2=BUSLVAGO687.1.2 Linecode=TRPX2/0AAAC length=9.8259 units=m !1ph_basekV=0.12 Group=NULL
new line.LV1FAGO203 bus1=BUSLVAGO896.1.2 bus2=BUSLVAGO687.1.2 Linecode=TRPX2/0AAAC length=4.9129 units=m !1ph_basekV=0.12 Group=NULL
new line.LV1FAGO204 bus1=BUSLVAGO930.1.2 bus2=BUSLVAGO687.1.2 Linecode=TRPX2/0AAAC length=15.3988 units=m !1ph_basekV=0.12 Group=NULL
new line.LV1FAGO205 bus1=BUSLVAGO1014.1.2 bus2=BUSLVAGO687.1.2 Linecode=TRPX2/0AAAC length=9.8260 units=m !1ph_basekV=0.12 Group=NULL
new line.LV1FAGO206 bus1=BUSLVAGO1028.1.2 bus2=BUSLVAGO687.1.2 Linecode=TRPX2/0AAAC length=9.8260 units=m !1ph_basekV=0.12 Group=NULL
new line.LV1FAGO207 bus1=BUSLVAGO1223.1.2 bus2=BUSLVAGO687.1.2 Linecode=TRPX2/0AAAC length=4.9130 units=m !1ph_basekV=0.12 Group=NULL
new line.LV1FAGO208 bus1=BUSLVAGO1224.1.2 bus2=BUSLVAGO687.1.2 Linecode=TRPX2/0AAAC length=4.9130 units=m !1ph_basekV=0.12 Group=NULL
new line.LV1FAGO209 bus1=BUSLVAGO1328.1.2 bus2=BUSLVAGO687.1.2 Linecode=TRPX2/0AAAC length=21.0841 units=m !1ph_basekV=0.12 Group=NULL
new line.LV1FAGO210 bus1=BUSLVAGO689.1.2 bus2=BUSLVAGO114.1.2 Linecode=TRPX2/0AAAC length=2.8785 units=m !1ph_basekV=0.12 Group=NULL
new line.LV1FAGO211 bus1=BUSLVAGO690.1.2 bus2=BUSLVAGO689.1.2 Linecode=TRPX2/0AAAC length=39.7541 units=m !1ph_basekV=0.12 Group=NULL
new line.LV1FAGO212 bus1=BUSLVAGO694.1.2 bus2=BUSLVAGO689.1.2 Linecode=TRPX2/0AAAC length=38.2097 units=m !1ph_basekV=0.12 Group=NULL
new line.LV1FAGO213 bus1=BUSLVAGO697.1.2 bus2=BUSLVAGO689.1.2 Linecode=TRPX2/0AAAC length=44.6659 units=m !1ph_basekV=0.12 Group=NULL
new line.LV1FAGO214 bus1=BUSLVAGO1254.1.2 bus2=BUSLVAGO689.1.2 Linecode=TRPX2/0AAAC length=17.0079 units=m !1ph_basekV=0.12 Group=NULL
new line.LV1FAGO215 bus1=BUSLVAGO1325.1.2 bus2=BUSLVAGO689.1.2 Linecode=TRPX2/0AAAC length=9.4635 units=m !1ph_basekV=0.12 Group=NULL
new line.LV1FAGO216 bus1=BUSLVAGO864.1.2 bus2=BUSLVAGO114.1.2 Linecode=TRPX2/0AAAC length=1.4363 units=m !1ph_basekV=0.12 Group=NULL
new line.LV1FAGO217 bus1=BUSLVAGO1104.1.2 bus2=BUSLVAGO114.1.2 Linecode=TRPX2/0AAAC length=1.4364 units=m !1ph_basekV=0.12 Group=NULL
new line.LV1FAGO218 bus1=BUSLVAGO1154.1.2 bus2=BUSLVAGO114.1.2 Linecode=TRPX2/0AAAC length=1.4363 units=m !1ph_basekV=0.12 Group=NULL
new line.LV1FAGO219 bus1=BUSLVAGO1215.1.2 bus2=BUSLVAGO114.1.2 Linecode=TRPX2/0AAAC length=0.7182 units=m !1ph_basekV=0.12 Group=NULL
new line.LV1FAGO220 bus1=BUSLVAGO691.1.2 bus2=BUSLVAGO690.1.2 Linecode=TRPX2/0AAAC length=45.6449 units=m !1ph_basekV=0.12 Group=NULL
new line.LV1FAGO221 bus1=BUSLVAGO1040.1.2 bus2=BUSLVAGO691.1.2 Linecode=TRPX2/0AAAC length=16.5497 units=m !1ph_basekV=0.12 Group=NULL
new line.LV1FAGO222 bus1=BUSLVAGO1050.1.2 bus2=BUSLVAGO691.1.2 Linecode=TRPX2/0AAAC length=16.5498 units=m !1ph_basekV=0.12 Group=NULL
new line.LV1FAGO223 bus1=BUSLVAGO1225.1.2 bus2=BUSLVAGO691.1.2 Linecode=TRPX2/0AAAC length=19.6830 units=m !1ph_basekV=0.12 Group=NULL