!C:/Users/REMIL/Documents/DSSroot/AGO9/DSS/profiles
New Loadshape.curve0_00R npts=96 minterval=15 mult=(file=C:/Users/REMIL/Documents/DSSroot/AGO9/DSS/profiles\residential\curve0_00R.txt)useactual=no 
New Loadshape.curve1003_00R npts=96 minterval=15 mult=(file=C:/Users/REMIL/Documents/DSSroot/AGO9/DSS/profiles\residential\curve1003_00R.txt)useactual=no 
New Loadshape.curve1032_00R npts=96 minterval=15 mult=(file=C:/Users/REMIL/Documents/DSSroot/AGO9/DSS/profiles\residential\curve1032_00R.txt)useactual=no 
New Loadshape.curve103_00R npts=96 minterval=15 mult=(file=C:/Users/REMIL/Documents/DSSroot/AGO9/DSS/profiles\residential\curve103_00R.txt)useactual=no 
New Loadshape.curve1064_00R npts=96 minterval=15 mult=(file=C:/Users/REMIL/Documents/DSSroot/AGO9/DSS/profiles\residential\curve1064_00R.txt)useactual=no 
New Loadshape.curve107_00R npts=96 minterval=15 mult=(file=C:/Users/REMIL/Documents/DSSroot/AGO9/DSS/profiles\residential\curve107_00R.txt)useactual=no 
New Loadshape.curve1094_00R npts=96 minterval=15 mult=(file=C:/Users/REMIL/Documents/DSSroot/AGO9/DSS/profiles\residential\curve1094_00R.txt)useactual=no 
New Loadshape.curve10_00R npts=96 minterval=15 mult=(file=C:/Users/REMIL/Documents/DSSroot/AGO9/DSS/profiles\residential\curve10_00R.txt)useactual=no 
New Loadshape.curve112_00R npts=96 minterval=15 mult=(file=C:/Users/REMIL/Documents/DSSroot/AGO9/DSS/profiles\residential\curve112_00R.txt)useactual=no 
New Loadshape.curve1138_00R npts=96 minterval=15 mult=(file=C:/Users/REMIL/Documents/DSSroot/AGO9/DSS/profiles\residential\curve1138_00R.txt)useactual=no 
New Loadshape.curve115_00R npts=96 minterval=15 mult=(file=C:/Users/REMIL/Documents/DSSroot/AGO9/DSS/profiles\residential\curve115_00R.txt)useactual=no 
New Loadshape.curve1180_00R npts=96 minterval=15 mult=(file=C:/Users/REMIL/Documents/DSSroot/AGO9/DSS/profiles\residential\curve1180_00R.txt)useactual=no 
New Loadshape.curve118_00R npts=96 minterval=15 mult=(file=C:/Users/REMIL/Documents/DSSroot/AGO9/DSS/profiles\residential\curve118_00R.txt)useactual=no 
New Loadshape.curve11_00R npts=96 minterval=15 mult=(file=C:/Users/REMIL/Documents/DSSroot/AGO9/DSS/profiles\residential\curve11_00R.txt)useactual=no 
New Loadshape.curve121_00R npts=96 minterval=15 mult=(file=C:/Users/REMIL/Documents/DSSroot/AGO9/DSS/profiles\residential\curve121_00R.txt)useactual=no 
New Loadshape.curve1229_00R npts=96 minterval=15 mult=(file=C:/Users/REMIL/Documents/DSSroot/AGO9/DSS/profiles\residential\curve1229_00R.txt)useactual=no 
New Loadshape.curve124_00R npts=96 minterval=15 mult=(file=C:/Users/REMIL/Documents/DSSroot/AGO9/DSS/profiles\residential\curve124_00R.txt)useactual=no 
New Loadshape.curve1272_00R npts=96 minterval=15 mult=(file=C:/Users/REMIL/Documents/DSSroot/AGO9/DSS/profiles\residential\curve1272_00R.txt)useactual=no 
New Loadshape.curve127_00R npts=96 minterval=15 mult=(file=C:/Users/REMIL/Documents/DSSroot/AGO9/DSS/profiles\residential\curve127_00R.txt)useactual=no 
New Loadshape.curve12_00R npts=96 minterval=15 mult=(file=C:/Users/REMIL/Documents/DSSroot/AGO9/DSS/profiles\residential\curve12_00R.txt)useactual=no 
New Loadshape.curve1302_00R npts=96 minterval=15 mult=(file=C:/Users/REMIL/Documents/DSSroot/AGO9/DSS/profiles\residential\curve1302_00R.txt)useactual=no 
New Loadshape.curve132_00R npts=96 minterval=15 mult=(file=C:/Users/REMIL/Documents/DSSroot/AGO9/DSS/profiles\residential\curve132_00R.txt)useactual=no 
New Loadshape.curve1344_00R npts=96 minterval=15 mult=(file=C:/Users/REMIL/Documents/DSSroot/AGO9/DSS/profiles\residential\curve1344_00R.txt)useactual=no 
New Loadshape.curve136_00R npts=96 minterval=15 mult=(file=C:/Users/REMIL/Documents/DSSroot/AGO9/DSS/profiles\residential\curve136_00R.txt)useactual=no 
New Loadshape.curve1380_00R npts=96 minterval=15 mult=(file=C:/Users/REMIL/Documents/DSSroot/AGO9/DSS/profiles\residential\curve1380_00R.txt)useactual=no 
New Loadshape.curve139_43R npts=96 minterval=15 mult=(file=C:/Users/REMIL/Documents/DSSroot/AGO9/DSS/profiles\residential\curve139_43R.txt)useactual=no 
New Loadshape.curve13_00R npts=96 minterval=15 mult=(file=C:/Users/REMIL/Documents/DSSroot/AGO9/DSS/profiles\residential\curve13_00R.txt)useactual=no 
New Loadshape.curve14160_00R npts=96 minterval=15 mult=(file=C:/Users/REMIL/Documents/DSSroot/AGO9/DSS/profiles\residential\curve14160_00R.txt)useactual=no 
New Loadshape.curve1416_00R npts=96 minterval=15 mult=(file=C:/Users/REMIL/Documents/DSSroot/AGO9/DSS/profiles\residential\curve1416_00R.txt)useactual=no 
New Loadshape.curve143_00R npts=96 minterval=15 mult=(file=C:/Users/REMIL/Documents/DSSroot/AGO9/DSS/profiles\residential\curve143_00R.txt)useactual=no 
New Loadshape.curve1448_00R npts=96 minterval=15 mult=(file=C:/Users/REMIL/Documents/DSSroot/AGO9/DSS/profiles\residential\curve1448_00R.txt)useactual=no 
New Loadshape.curve146_00R npts=96 minterval=15 mult=(file=C:/Users/REMIL/Documents/DSSroot/AGO9/DSS/profiles\residential\curve146_00R.txt)useactual=no 
New Loadshape.curve1498_00R npts=96 minterval=15 mult=(file=C:/Users/REMIL/Documents/DSSroot/AGO9/DSS/profiles\residential\curve1498_00R.txt)useactual=no 
New Loadshape.curve14_00R npts=96 minterval=15 mult=(file=C:/Users/REMIL/Documents/DSSroot/AGO9/DSS/profiles\residential\curve14_00R.txt)useactual=no 
New Loadshape.curve150_00R npts=96 minterval=15 mult=(file=C:/Users/REMIL/Documents/DSSroot/AGO9/DSS/profiles\residential\curve150_00R.txt)useactual=no 
New Loadshape.curve1544_00R npts=96 minterval=15 mult=(file=C:/Users/REMIL/Documents/DSSroot/AGO9/DSS/profiles\residential\curve1544_00R.txt)useactual=no 
New Loadshape.curve154_00R npts=96 minterval=15 mult=(file=C:/Users/REMIL/Documents/DSSroot/AGO9/DSS/profiles\residential\curve154_00R.txt)useactual=no 
New Loadshape.curve158_00R npts=96 minterval=15 mult=(file=C:/Users/REMIL/Documents/DSSroot/AGO9/DSS/profiles\residential\curve158_00R.txt)useactual=no 
New Loadshape.curve15_00R npts=96 minterval=15 mult=(file=C:/Users/REMIL/Documents/DSSroot/AGO9/DSS/profiles\residential\curve15_00R.txt)useactual=no 
New Loadshape.curve1621_00R npts=96 minterval=15 mult=(file=C:/Users/REMIL/Documents/DSSroot/AGO9/DSS/profiles\residential\curve1621_00R.txt)useactual=no 
New Loadshape.curve162_00R npts=96 minterval=15 mult=(file=C:/Users/REMIL/Documents/DSSroot/AGO9/DSS/profiles\residential\curve162_00R.txt)useactual=no 
New Loadshape.curve167_00R npts=96 minterval=15 mult=(file=C:/Users/REMIL/Documents/DSSroot/AGO9/DSS/profiles\residential\curve167_00R.txt)useactual=no 
New Loadshape.curve1688_00R npts=96 minterval=15 mult=(file=C:/Users/REMIL/Documents/DSSroot/AGO9/DSS/profiles\residential\curve1688_00R.txt)useactual=no 
New Loadshape.curve16_00R npts=96 minterval=15 mult=(file=C:/Users/REMIL/Documents/DSSroot/AGO9/DSS/profiles\residential\curve16_00R.txt)useactual=no 
New Loadshape.curve172_00R npts=96 minterval=15 mult=(file=C:/Users/REMIL/Documents/DSSroot/AGO9/DSS/profiles\residential\curve172_00R.txt)useactual=no 
New Loadshape.curve1755_00R npts=96 minterval=15 mult=(file=C:/Users/REMIL/Documents/DSSroot/AGO9/DSS/profiles\residential\curve1755_00R.txt)useactual=no 
New Loadshape.curve177_00R npts=96 minterval=15 mult=(file=C:/Users/REMIL/Documents/DSSroot/AGO9/DSS/profiles\residential\curve177_00R.txt)useactual=no 
New Loadshape.curve17_00R npts=96 minterval=15 mult=(file=C:/Users/REMIL/Documents/DSSroot/AGO9/DSS/profiles\residential\curve17_00R.txt)useactual=no 
New Loadshape.curve1801_00R npts=96 minterval=15 mult=(file=C:/Users/REMIL/Documents/DSSroot/AGO9/DSS/profiles\residential\curve1801_00R.txt)useactual=no 
New Loadshape.curve180_93R npts=96 minterval=15 mult=(file=C:/Users/REMIL/Documents/DSSroot/AGO9/DSS/profiles\residential\curve180_93R.txt)useactual=no 
New Loadshape.curve1840_00R npts=96 minterval=15 mult=(file=C:/Users/REMIL/Documents/DSSroot/AGO9/DSS/profiles\residential\curve1840_00R.txt)useactual=no 
New Loadshape.curve188_00R npts=96 minterval=15 mult=(file=C:/Users/REMIL/Documents/DSSroot/AGO9/DSS/profiles\residential\curve188_00R.txt)useactual=no 
New Loadshape.curve18_00R npts=96 minterval=15 mult=(file=C:/Users/REMIL/Documents/DSSroot/AGO9/DSS/profiles\residential\curve18_00R.txt)useactual=no 
New Loadshape.curve1912_00R npts=96 minterval=15 mult=(file=C:/Users/REMIL/Documents/DSSroot/AGO9/DSS/profiles\residential\curve1912_00R.txt)useactual=no 
New Loadshape.curve194_00R npts=96 minterval=15 mult=(file=C:/Users/REMIL/Documents/DSSroot/AGO9/DSS/profiles\residential\curve194_00R.txt)useactual=no 
New Loadshape.curve1952_00R npts=96 minterval=15 mult=(file=C:/Users/REMIL/Documents/DSSroot/AGO9/DSS/profiles\residential\curve1952_00R.txt)useactual=no 
New Loadshape.curve198_33R npts=96 minterval=15 mult=(file=C:/Users/REMIL/Documents/DSSroot/AGO9/DSS/profiles\residential\curve198_33R.txt)useactual=no 
New Loadshape.curve19_00R npts=96 minterval=15 mult=(file=C:/Users/REMIL/Documents/DSSroot/AGO9/DSS/profiles\residential\curve19_00R.txt)useactual=no 
New Loadshape.curve1_00R npts=96 minterval=15 mult=(file=C:/Users/REMIL/Documents/DSSroot/AGO9/DSS/profiles\residential\curve1_00R.txt)useactual=no 
New Loadshape.curve2037_00R npts=96 minterval=15 mult=(file=C:/Users/REMIL/Documents/DSSroot/AGO9/DSS/profiles\residential\curve2037_00R.txt)useactual=no 
New Loadshape.curve207_00R npts=96 minterval=15 mult=(file=C:/Users/REMIL/Documents/DSSroot/AGO9/DSS/profiles\residential\curve207_00R.txt)useactual=no 
New Loadshape.curve20_00R npts=96 minterval=15 mult=(file=C:/Users/REMIL/Documents/DSSroot/AGO9/DSS/profiles\residential\curve20_00R.txt)useactual=no 
New Loadshape.curve211_74R npts=96 minterval=15 mult=(file=C:/Users/REMIL/Documents/DSSroot/AGO9/DSS/profiles\residential\curve211_74R.txt)useactual=no 
New Loadshape.curve2123_00R npts=96 minterval=15 mult=(file=C:/Users/REMIL/Documents/DSSroot/AGO9/DSS/profiles\residential\curve2123_00R.txt)useactual=no 
New Loadshape.curve215_30R npts=96 minterval=15 mult=(file=C:/Users/REMIL/Documents/DSSroot/AGO9/DSS/profiles\residential\curve215_30R.txt)useactual=no 
New Loadshape.curve215_84R npts=96 minterval=15 mult=(file=C:/Users/REMIL/Documents/DSSroot/AGO9/DSS/profiles\residential\curve215_84R.txt)useactual=no 
New Loadshape.curve217_83R npts=96 minterval=15 mult=(file=C:/Users/REMIL/Documents/DSSroot/AGO9/DSS/profiles\residential\curve217_83R.txt)useactual=no 
New Loadshape.curve2180_00R npts=96 minterval=15 mult=(file=C:/Users/REMIL/Documents/DSSroot/AGO9/DSS/profiles\residential\curve2180_00R.txt)useactual=no 
New Loadshape.curve219_48R npts=96 minterval=15 mult=(file=C:/Users/REMIL/Documents/DSSroot/AGO9/DSS/profiles\residential\curve219_48R.txt)useactual=no 
New Loadshape.curve21_00R npts=96 minterval=15 mult=(file=C:/Users/REMIL/Documents/DSSroot/AGO9/DSS/profiles\residential\curve21_00R.txt)useactual=no 
New Loadshape.curve222_78R npts=96 minterval=15 mult=(file=C:/Users/REMIL/Documents/DSSroot/AGO9/DSS/profiles\residential\curve222_78R.txt)useactual=no 
New Loadshape.curve225_00R npts=96 minterval=15 mult=(file=C:/Users/REMIL/Documents/DSSroot/AGO9/DSS/profiles\residential\curve225_00R.txt)useactual=no 
New Loadshape.curve229_37R npts=96 minterval=15 mult=(file=C:/Users/REMIL/Documents/DSSroot/AGO9/DSS/profiles\residential\curve229_37R.txt)useactual=no 
New Loadshape.curve22_00R npts=96 minterval=15 mult=(file=C:/Users/REMIL/Documents/DSSroot/AGO9/DSS/profiles\residential\curve22_00R.txt)useactual=no 
New Loadshape.curve230_00R npts=96 minterval=15 mult=(file=C:/Users/REMIL/Documents/DSSroot/AGO9/DSS/profiles\residential\curve230_00R.txt)useactual=no 
New Loadshape.curve2340_00R npts=96 minterval=15 mult=(file=C:/Users/REMIL/Documents/DSSroot/AGO9/DSS/profiles\residential\curve2340_00R.txt)useactual=no 
New Loadshape.curve235_67R npts=96 minterval=15 mult=(file=C:/Users/REMIL/Documents/DSSroot/AGO9/DSS/profiles\residential\curve235_67R.txt)useactual=no 
New Loadshape.curve235_80R npts=96 minterval=15 mult=(file=C:/Users/REMIL/Documents/DSSroot/AGO9/DSS/profiles\residential\curve235_80R.txt)useactual=no 
New Loadshape.curve2397_21R npts=96 minterval=15 mult=(file=C:/Users/REMIL/Documents/DSSroot/AGO9/DSS/profiles\residential\curve2397_21R.txt)useactual=no 
New Loadshape.curve23_00R npts=96 minterval=15 mult=(file=C:/Users/REMIL/Documents/DSSroot/AGO9/DSS/profiles\residential\curve23_00R.txt)useactual=no 
New Loadshape.curve241_72R npts=96 minterval=15 mult=(file=C:/Users/REMIL/Documents/DSSroot/AGO9/DSS/profiles\residential\curve241_72R.txt)useactual=no 
New Loadshape.curve242_00R npts=96 minterval=15 mult=(file=C:/Users/REMIL/Documents/DSSroot/AGO9/DSS/profiles\residential\curve242_00R.txt)useactual=no 
New Loadshape.curve248_00R npts=96 minterval=15 mult=(file=C:/Users/REMIL/Documents/DSSroot/AGO9/DSS/profiles\residential\curve248_00R.txt)useactual=no 
New Loadshape.curve24_00R npts=96 minterval=15 mult=(file=C:/Users/REMIL/Documents/DSSroot/AGO9/DSS/profiles\residential\curve24_00R.txt)useactual=no 
New Loadshape.curve2500_00R npts=96 minterval=15 mult=(file=C:/Users/REMIL/Documents/DSSroot/AGO9/DSS/profiles\residential\curve2500_00R.txt)useactual=no 
New Loadshape.curve250_41R npts=96 minterval=15 mult=(file=C:/Users/REMIL/Documents/DSSroot/AGO9/DSS/profiles\residential\curve250_41R.txt)useactual=no 
New Loadshape.curve255_96R npts=96 minterval=15 mult=(file=C:/Users/REMIL/Documents/DSSroot/AGO9/DSS/profiles\residential\curve255_96R.txt)useactual=no 
New Loadshape.curve2571_00R npts=96 minterval=15 mult=(file=C:/Users/REMIL/Documents/DSSroot/AGO9/DSS/profiles\residential\curve2571_00R.txt)useactual=no 
New Loadshape.curve258_75R npts=96 minterval=15 mult=(file=C:/Users/REMIL/Documents/DSSroot/AGO9/DSS/profiles\residential\curve258_75R.txt)useactual=no 
New Loadshape.curve25_00R npts=96 minterval=15 mult=(file=C:/Users/REMIL/Documents/DSSroot/AGO9/DSS/profiles\residential\curve25_00R.txt)useactual=no 
New Loadshape.curve264_00R npts=96 minterval=15 mult=(file=C:/Users/REMIL/Documents/DSSroot/AGO9/DSS/profiles\residential\curve264_00R.txt)useactual=no 
New Loadshape.curve264_15R npts=96 minterval=15 mult=(file=C:/Users/REMIL/Documents/DSSroot/AGO9/DSS/profiles\residential\curve264_15R.txt)useactual=no 
New Loadshape.curve2697_00R npts=96 minterval=15 mult=(file=C:/Users/REMIL/Documents/DSSroot/AGO9/DSS/profiles\residential\curve2697_00R.txt)useactual=no 
New Loadshape.curve269_45R npts=96 minterval=15 mult=(file=C:/Users/REMIL/Documents/DSSroot/AGO9/DSS/profiles\residential\curve269_45R.txt)useactual=no 
New Loadshape.curve26_00R npts=96 minterval=15 mult=(file=C:/Users/REMIL/Documents/DSSroot/AGO9/DSS/profiles\residential\curve26_00R.txt)useactual=no 
New Loadshape.curve275_00R npts=96 minterval=15 mult=(file=C:/Users/REMIL/Documents/DSSroot/AGO9/DSS/profiles\residential\curve275_00R.txt)useactual=no 
New Loadshape.curve277_25R npts=96 minterval=15 mult=(file=C:/Users/REMIL/Documents/DSSroot/AGO9/DSS/profiles\residential\curve277_25R.txt)useactual=no 
New Loadshape.curve27_00R npts=96 minterval=15 mult=(file=C:/Users/REMIL/Documents/DSSroot/AGO9/DSS/profiles\residential\curve27_00R.txt)useactual=no 
New Loadshape.curve2816_00R npts=96 minterval=15 mult=(file=C:/Users/REMIL/Documents/DSSroot/AGO9/DSS/profiles\residential\curve2816_00R.txt)useactual=no 
New Loadshape.curve283_00R npts=96 minterval=15 mult=(file=C:/Users/REMIL/Documents/DSSroot/AGO9/DSS/profiles\residential\curve283_00R.txt)useactual=no 
New Loadshape.curve287_43R npts=96 minterval=15 mult=(file=C:/Users/REMIL/Documents/DSSroot/AGO9/DSS/profiles\residential\curve287_43R.txt)useactual=no 
New Loadshape.curve28_00R npts=96 minterval=15 mult=(file=C:/Users/REMIL/Documents/DSSroot/AGO9/DSS/profiles\residential\curve28_00R.txt)useactual=no 
New Loadshape.curve2919_00R npts=96 minterval=15 mult=(file=C:/Users/REMIL/Documents/DSSroot/AGO9/DSS/profiles\residential\curve2919_00R.txt)useactual=no 
New Loadshape.curve292_50R npts=96 minterval=15 mult=(file=C:/Users/REMIL/Documents/DSSroot/AGO9/DSS/profiles\residential\curve292_50R.txt)useactual=no 
New Loadshape.curve294_98R npts=96 minterval=15 mult=(file=C:/Users/REMIL/Documents/DSSroot/AGO9/DSS/profiles\residential\curve294_98R.txt)useactual=no 
New Loadshape.curve299_22R npts=96 minterval=15 mult=(file=C:/Users/REMIL/Documents/DSSroot/AGO9/DSS/profiles\residential\curve299_22R.txt)useactual=no 
New Loadshape.curve29_00R npts=96 minterval=15 mult=(file=C:/Users/REMIL/Documents/DSSroot/AGO9/DSS/profiles\residential\curve29_00R.txt)useactual=no 
New Loadshape.curve2_00R npts=96 minterval=15 mult=(file=C:/Users/REMIL/Documents/DSSroot/AGO9/DSS/profiles\residential\curve2_00R.txt)useactual=no 
New Loadshape.curve301_77R npts=96 minterval=15 mult=(file=C:/Users/REMIL/Documents/DSSroot/AGO9/DSS/profiles\residential\curve301_77R.txt)useactual=no 
New Loadshape.curve302_51R npts=96 minterval=15 mult=(file=C:/Users/REMIL/Documents/DSSroot/AGO9/DSS/profiles\residential\curve302_51R.txt)useactual=no 
New Loadshape.curve3033_00R npts=96 minterval=15 mult=(file=C:/Users/REMIL/Documents/DSSroot/AGO9/DSS/profiles\residential\curve3033_00R.txt)useactual=no 
New Loadshape.curve304_21R npts=96 minterval=15 mult=(file=C:/Users/REMIL/Documents/DSSroot/AGO9/DSS/profiles\residential\curve304_21R.txt)useactual=no 
New Loadshape.curve30_00R npts=96 minterval=15 mult=(file=C:/Users/REMIL/Documents/DSSroot/AGO9/DSS/profiles\residential\curve30_00R.txt)useactual=no 
New Loadshape.curve312_57R npts=96 minterval=15 mult=(file=C:/Users/REMIL/Documents/DSSroot/AGO9/DSS/profiles\residential\curve312_57R.txt)useactual=no 
New Loadshape.curve313_00R npts=96 minterval=15 mult=(file=C:/Users/REMIL/Documents/DSSroot/AGO9/DSS/profiles\residential\curve313_00R.txt)useactual=no 
New Loadshape.curve3141_00R npts=96 minterval=15 mult=(file=C:/Users/REMIL/Documents/DSSroot/AGO9/DSS/profiles\residential\curve3141_00R.txt)useactual=no 
New Loadshape.curve31_00R npts=96 minterval=15 mult=(file=C:/Users/REMIL/Documents/DSSroot/AGO9/DSS/profiles\residential\curve31_00R.txt)useactual=no 
New Loadshape.curve320_19R npts=96 minterval=15 mult=(file=C:/Users/REMIL/Documents/DSSroot/AGO9/DSS/profiles\residential\curve320_19R.txt)useactual=no 
New Loadshape.curve3256_00R npts=96 minterval=15 mult=(file=C:/Users/REMIL/Documents/DSSroot/AGO9/DSS/profiles\residential\curve3256_00R.txt)useactual=no 
New Loadshape.curve325_00R npts=96 minterval=15 mult=(file=C:/Users/REMIL/Documents/DSSroot/AGO9/DSS/profiles\residential\curve325_00R.txt)useactual=no 
New Loadshape.curve327_93R npts=96 minterval=15 mult=(file=C:/Users/REMIL/Documents/DSSroot/AGO9/DSS/profiles\residential\curve327_93R.txt)useactual=no 
New Loadshape.curve32_00R npts=96 minterval=15 mult=(file=C:/Users/REMIL/Documents/DSSroot/AGO9/DSS/profiles\residential\curve32_00R.txt)useactual=no 
New Loadshape.curve332_00R npts=96 minterval=15 mult=(file=C:/Users/REMIL/Documents/DSSroot/AGO9/DSS/profiles\residential\curve332_00R.txt)useactual=no 
New Loadshape.curve3332_00R npts=96 minterval=15 mult=(file=C:/Users/REMIL/Documents/DSSroot/AGO9/DSS/profiles\residential\curve3332_00R.txt)useactual=no 
New Loadshape.curve339_00R npts=96 minterval=15 mult=(file=C:/Users/REMIL/Documents/DSSroot/AGO9/DSS/profiles\residential\curve339_00R.txt)useactual=no 
New Loadshape.curve33_00R npts=96 minterval=15 mult=(file=C:/Users/REMIL/Documents/DSSroot/AGO9/DSS/profiles\residential\curve33_00R.txt)useactual=no 
New Loadshape.curve341_25R npts=96 minterval=15 mult=(file=C:/Users/REMIL/Documents/DSSroot/AGO9/DSS/profiles\residential\curve341_25R.txt)useactual=no 
New Loadshape.curve346_00R npts=96 minterval=15 mult=(file=C:/Users/REMIL/Documents/DSSroot/AGO9/DSS/profiles\residential\curve346_00R.txt)useactual=no 
New Loadshape.curve34_00R npts=96 minterval=15 mult=(file=C:/Users/REMIL/Documents/DSSroot/AGO9/DSS/profiles\residential\curve34_00R.txt)useactual=no 
New Loadshape.curve3507_00R npts=96 minterval=15 mult=(file=C:/Users/REMIL/Documents/DSSroot/AGO9/DSS/profiles\residential\curve3507_00R.txt)useactual=no 
New Loadshape.curve353_33R npts=96 minterval=15 mult=(file=C:/Users/REMIL/Documents/DSSroot/AGO9/DSS/profiles\residential\curve353_33R.txt)useactual=no 
New Loadshape.curve355_34R npts=96 minterval=15 mult=(file=C:/Users/REMIL/Documents/DSSroot/AGO9/DSS/profiles\residential\curve355_34R.txt)useactual=no 
New Loadshape.curve35_00R npts=96 minterval=15 mult=(file=C:/Users/REMIL/Documents/DSSroot/AGO9/DSS/profiles\residential\curve35_00R.txt)useactual=no 
New Loadshape.curve361_00R npts=96 minterval=15 mult=(file=C:/Users/REMIL/Documents/DSSroot/AGO9/DSS/profiles\residential\curve361_00R.txt)useactual=no 
New Loadshape.curve364_33R npts=96 minterval=15 mult=(file=C:/Users/REMIL/Documents/DSSroot/AGO9/DSS/profiles\residential\curve364_33R.txt)useactual=no 
New Loadshape.curve3652_00R npts=96 minterval=15 mult=(file=C:/Users/REMIL/Documents/DSSroot/AGO9/DSS/profiles\residential\curve3652_00R.txt)useactual=no 
New Loadshape.curve369_00R npts=96 minterval=15 mult=(file=C:/Users/REMIL/Documents/DSSroot/AGO9/DSS/profiles\residential\curve369_00R.txt)useactual=no 
New Loadshape.curve36_00R npts=96 minterval=15 mult=(file=C:/Users/REMIL/Documents/DSSroot/AGO9/DSS/profiles\residential\curve36_00R.txt)useactual=no 
New Loadshape.curve373_88R npts=96 minterval=15 mult=(file=C:/Users/REMIL/Documents/DSSroot/AGO9/DSS/profiles\residential\curve373_88R.txt)useactual=no 
New Loadshape.curve37_00R npts=96 minterval=15 mult=(file=C:/Users/REMIL/Documents/DSSroot/AGO9/DSS/profiles\residential\curve37_00R.txt)useactual=no 
New Loadshape.curve380_00R npts=96 minterval=15 mult=(file=C:/Users/REMIL/Documents/DSSroot/AGO9/DSS/profiles\residential\curve380_00R.txt)useactual=no 
New Loadshape.curve387_79R npts=96 minterval=15 mult=(file=C:/Users/REMIL/Documents/DSSroot/AGO9/DSS/profiles\residential\curve387_79R.txt)useactual=no 
New Loadshape.curve3898_00R npts=96 minterval=15 mult=(file=C:/Users/REMIL/Documents/DSSroot/AGO9/DSS/profiles\residential\curve3898_00R.txt)useactual=no 
New Loadshape.curve38_00R npts=96 minterval=15 mult=(file=C:/Users/REMIL/Documents/DSSroot/AGO9/DSS/profiles\residential\curve38_00R.txt)useactual=no 
New Loadshape.curve390_02R npts=96 minterval=15 mult=(file=C:/Users/REMIL/Documents/DSSroot/AGO9/DSS/profiles\residential\curve390_02R.txt)useactual=no 
New Loadshape.curve39_00R npts=96 minterval=15 mult=(file=C:/Users/REMIL/Documents/DSSroot/AGO9/DSS/profiles\residential\curve39_00R.txt)useactual=no 
New Loadshape.curve3_00R npts=96 minterval=15 mult=(file=C:/Users/REMIL/Documents/DSSroot/AGO9/DSS/profiles\residential\curve3_00R.txt)useactual=no 
New Loadshape.curve401_82R npts=96 minterval=15 mult=(file=C:/Users/REMIL/Documents/DSSroot/AGO9/DSS/profiles\residential\curve401_82R.txt)useactual=no 
New Loadshape.curve403_64R npts=96 minterval=15 mult=(file=C:/Users/REMIL/Documents/DSSroot/AGO9/DSS/profiles\residential\curve403_64R.txt)useactual=no 
New Loadshape.curve40_00R npts=96 minterval=15 mult=(file=C:/Users/REMIL/Documents/DSSroot/AGO9/DSS/profiles\residential\curve40_00R.txt)useactual=no 
New Loadshape.curve4109_00R npts=96 minterval=15 mult=(file=C:/Users/REMIL/Documents/DSSroot/AGO9/DSS/profiles\residential\curve4109_00R.txt)useactual=no 
New Loadshape.curve413_00R npts=96 minterval=15 mult=(file=C:/Users/REMIL/Documents/DSSroot/AGO9/DSS/profiles\residential\curve413_00R.txt)useactual=no 
New Loadshape.curve417_50R npts=96 minterval=15 mult=(file=C:/Users/REMIL/Documents/DSSroot/AGO9/DSS/profiles\residential\curve417_50R.txt)useactual=no 
New Loadshape.curve41_00R npts=96 minterval=15 mult=(file=C:/Users/REMIL/Documents/DSSroot/AGO9/DSS/profiles\residential\curve41_00R.txt)useactual=no 
New Loadshape.curve4232_00R npts=96 minterval=15 mult=(file=C:/Users/REMIL/Documents/DSSroot/AGO9/DSS/profiles\residential\curve4232_00R.txt)useactual=no 
New Loadshape.curve423_36R npts=96 minterval=15 mult=(file=C:/Users/REMIL/Documents/DSSroot/AGO9/DSS/profiles\residential\curve423_36R.txt)useactual=no 
New Loadshape.curve428_16R npts=96 minterval=15 mult=(file=C:/Users/REMIL/Documents/DSSroot/AGO9/DSS/profiles\residential\curve428_16R.txt)useactual=no 
New Loadshape.curve42_00R npts=96 minterval=15 mult=(file=C:/Users/REMIL/Documents/DSSroot/AGO9/DSS/profiles\residential\curve42_00R.txt)useactual=no 
New Loadshape.curve434_00R npts=96 minterval=15 mult=(file=C:/Users/REMIL/Documents/DSSroot/AGO9/DSS/profiles\residential\curve434_00R.txt)useactual=no 
New Loadshape.curve43_00R npts=96 minterval=15 mult=(file=C:/Users/REMIL/Documents/DSSroot/AGO9/DSS/profiles\residential\curve43_00R.txt)useactual=no 
New Loadshape.curve4412_00R npts=96 minterval=15 mult=(file=C:/Users/REMIL/Documents/DSSroot/AGO9/DSS/profiles\residential\curve4412_00R.txt)useactual=no 
New Loadshape.curve445_44R npts=96 minterval=15 mult=(file=C:/Users/REMIL/Documents/DSSroot/AGO9/DSS/profiles\residential\curve445_44R.txt)useactual=no 
New Loadshape.curve447_58R npts=96 minterval=15 mult=(file=C:/Users/REMIL/Documents/DSSroot/AGO9/DSS/profiles\residential\curve447_58R.txt)useactual=no 
New Loadshape.curve44_00R npts=96 minterval=15 mult=(file=C:/Users/REMIL/Documents/DSSroot/AGO9/DSS/profiles\residential\curve44_00R.txt)useactual=no 
New Loadshape.curve459_00R npts=96 minterval=15 mult=(file=C:/Users/REMIL/Documents/DSSroot/AGO9/DSS/profiles\residential\curve459_00R.txt)useactual=no 
New Loadshape.curve45_00R npts=96 minterval=15 mult=(file=C:/Users/REMIL/Documents/DSSroot/AGO9/DSS/profiles\residential\curve45_00R.txt)useactual=no 
New Loadshape.curve464_49R npts=96 minterval=15 mult=(file=C:/Users/REMIL/Documents/DSSroot/AGO9/DSS/profiles\residential\curve464_49R.txt)useactual=no 
New Loadshape.curve46_00R npts=96 minterval=15 mult=(file=C:/Users/REMIL/Documents/DSSroot/AGO9/DSS/profiles\residential\curve46_00R.txt)useactual=no 
New Loadshape.curve470_34R npts=96 minterval=15 mult=(file=C:/Users/REMIL/Documents/DSSroot/AGO9/DSS/profiles\residential\curve470_34R.txt)useactual=no 
New Loadshape.curve475_07R npts=96 minterval=15 mult=(file=C:/Users/REMIL/Documents/DSSroot/AGO9/DSS/profiles\residential\curve475_07R.txt)useactual=no 
New Loadshape.curve47_00R npts=96 minterval=15 mult=(file=C:/Users/REMIL/Documents/DSSroot/AGO9/DSS/profiles\residential\curve47_00R.txt)useactual=no 
New Loadshape.curve481_00R npts=96 minterval=15 mult=(file=C:/Users/REMIL/Documents/DSSroot/AGO9/DSS/profiles\residential\curve481_00R.txt)useactual=no 
New Loadshape.curve488_08R npts=96 minterval=15 mult=(file=C:/Users/REMIL/Documents/DSSroot/AGO9/DSS/profiles\residential\curve488_08R.txt)useactual=no 
New Loadshape.curve48_00R npts=96 minterval=15 mult=(file=C:/Users/REMIL/Documents/DSSroot/AGO9/DSS/profiles\residential\curve48_00R.txt)useactual=no 
New Loadshape.curve495_60R npts=96 minterval=15 mult=(file=C:/Users/REMIL/Documents/DSSroot/AGO9/DSS/profiles\residential\curve495_60R.txt)useactual=no 
New Loadshape.curve49_00R npts=96 minterval=15 mult=(file=C:/Users/REMIL/Documents/DSSroot/AGO9/DSS/profiles\residential\curve49_00R.txt)useactual=no 
New Loadshape.curve4_00R npts=96 minterval=15 mult=(file=C:/Users/REMIL/Documents/DSSroot/AGO9/DSS/profiles\residential\curve4_00R.txt)useactual=no 
New Loadshape.curve505_37R npts=96 minterval=15 mult=(file=C:/Users/REMIL/Documents/DSSroot/AGO9/DSS/profiles\residential\curve505_37R.txt)useactual=no 
New Loadshape.curve506_00R npts=96 minterval=15 mult=(file=C:/Users/REMIL/Documents/DSSroot/AGO9/DSS/profiles\residential\curve506_00R.txt)useactual=no 
New Loadshape.curve519_00R npts=96 minterval=15 mult=(file=C:/Users/REMIL/Documents/DSSroot/AGO9/DSS/profiles\residential\curve519_00R.txt)useactual=no 
New Loadshape.curve51_00R npts=96 minterval=15 mult=(file=C:/Users/REMIL/Documents/DSSroot/AGO9/DSS/profiles\residential\curve51_00R.txt)useactual=no 
New Loadshape.curve530_25R npts=96 minterval=15 mult=(file=C:/Users/REMIL/Documents/DSSroot/AGO9/DSS/profiles\residential\curve530_25R.txt)useactual=no 
New Loadshape.curve532_63R npts=96 minterval=15 mult=(file=C:/Users/REMIL/Documents/DSSroot/AGO9/DSS/profiles\residential\curve532_63R.txt)useactual=no 
New Loadshape.curve53_00R npts=96 minterval=15 mult=(file=C:/Users/REMIL/Documents/DSSroot/AGO9/DSS/profiles\residential\curve53_00R.txt)useactual=no 
New Loadshape.curve544_45R npts=96 minterval=15 mult=(file=C:/Users/REMIL/Documents/DSSroot/AGO9/DSS/profiles\residential\curve544_45R.txt)useactual=no 
New Loadshape.curve556_00R npts=96 minterval=15 mult=(file=C:/Users/REMIL/Documents/DSSroot/AGO9/DSS/profiles\residential\curve556_00R.txt)useactual=no 
New Loadshape.curve5572_00R npts=96 minterval=15 mult=(file=C:/Users/REMIL/Documents/DSSroot/AGO9/DSS/profiles\residential\curve5572_00R.txt)useactual=no 
New Loadshape.curve567_55R npts=96 minterval=15 mult=(file=C:/Users/REMIL/Documents/DSSroot/AGO9/DSS/profiles\residential\curve567_55R.txt)useactual=no 
New Loadshape.curve56_00R npts=96 minterval=15 mult=(file=C:/Users/REMIL/Documents/DSSroot/AGO9/DSS/profiles\residential\curve56_00R.txt)useactual=no 
New Loadshape.curve582_00R npts=96 minterval=15 mult=(file=C:/Users/REMIL/Documents/DSSroot/AGO9/DSS/profiles\residential\curve582_00R.txt)useactual=no 
New Loadshape.curve58_00R npts=96 minterval=15 mult=(file=C:/Users/REMIL/Documents/DSSroot/AGO9/DSS/profiles\residential\curve58_00R.txt)useactual=no 
New Loadshape.curve597_00R npts=96 minterval=15 mult=(file=C:/Users/REMIL/Documents/DSSroot/AGO9/DSS/profiles\residential\curve597_00R.txt)useactual=no 
New Loadshape.curve5_00R npts=96 minterval=15 mult=(file=C:/Users/REMIL/Documents/DSSroot/AGO9/DSS/profiles\residential\curve5_00R.txt)useactual=no 
New Loadshape.curve610_00R npts=96 minterval=15 mult=(file=C:/Users/REMIL/Documents/DSSroot/AGO9/DSS/profiles\residential\curve610_00R.txt)useactual=no 
New Loadshape.curve61_00R npts=96 minterval=15 mult=(file=C:/Users/REMIL/Documents/DSSroot/AGO9/DSS/profiles\residential\curve61_00R.txt)useactual=no 